
Note: No compatibility mode selected!


Circuit: * rf lna - common source with inductive degeneration

Doing analysis at TEMP = 27.000000 and TNOM = 27.000000

Using SPARSE 1.3 as Direct Linear Solver
Warning: Source conductance reset to 1.0e3 mho.
 Reference value :  0.00000e+00
No. of Data Rows : 1
idd = 0.000348001
pdc = 0.000626402
 ASRC: Arbitrary Source 
     device b.xlload_r.brhrpoly_2      b.xlload_r.brend b.xlsrc_r.brhrpoly_0p
      dtemp                     0                     0                     0
          i           1.99194e-06           1.99194e-06           2.26855e-07
          v            0.00113102           0.000300764            0.00126176
   pos_node                    30                     1                    18
   neg_node                    29                    30                     0

 ASRC: Arbitrary Source 
     device       b.xlsrc_r.brend
      dtemp                     0
          i           2.26855e-07
          v           0.000177087
   pos_node                    17
   neg_node                    18

 BSIM4v5: Berkeley Short Channel IGFET Model-4
     device m.xn1.xsky130_fd_pr__ m.xn1.xsky130_fd_pr__
      model xn1.xsky130_fd_pr__rf xn1.xsky130_fd_pr__rf
          l               2.5e-07               2.5e-07
          w              1.65e-06              1.65e-06
          m                     2                     4
         nf                     1                     1
         sa                     0                     0
         sb                     0                     0
         sd                     0                     0
        sca                     0                     0
        scb                     0                     0
        scc                     0                     0
         sc                     0                     0
        min                     0                     0
         ad              4.95e-13              2.31e-13
         as                     0              3.47e-13
         pd               3.9e-06              1.93e-06
         ps                     0               2.9e-06
        nrd                  36.4                  72.8
        nrs                     0                 48.53
        off                     0                     0
       rbdb                100000                100000
       rbsb                100000                100000
       rbpb                  1800                  1800
       rbps                 0.001                 0.001
       rbpd                 0.001                 0.001
     delvto                     0                     0
      mulu0                     1                     1
        xgw              1.35e-06              1.35e-06
      ngcon                     2                     2
   trnqsmod                     0                     0
   acnqsmod                     0                     0
   rbodymod                     1                     1
   rgatemod                     3                     3
     geomod                     0                     0
    rgeomod                     0                     0
       gmbs           1.20889e-13           0.000364881
         gm           3.90968e-13            0.00188328
        gds           9.86391e-12            3.2844e-05
      vdsat             0.0415865              0.206309
        vth              0.703031              0.702653
         id           1.44309e-14           0.000347943
        ibd           5.35454e-24          -7.14984e-12
        ibs          -3.71994e-15          -4.47667e-14
        gbd           2.11209e-12                 4e-12
        gbs           2.57286e-12           4.10183e-12
       isub           2.05102e-32           5.83799e-08
      igidl                     0                     0
      igisl                     0                     0
        igs                     0                     0
        igd                     0                     0
        igb                     0                     0
       igcs                     0                     0
       igcd                     0                     0
        vbs           -0.00143885            -0.0108649
        vgs           -0.00143885               0.98911
        vds           -0.00143885               1.77604
        cgg           1.53237e-15           6.99079e-15
        cgs          -1.98146e-18           -5.9195e-15
        cgd          -9.14675e-23           7.19325e-18
        cbg          -1.53237e-15          -5.41509e-16
        cbd          -1.71736e-23           2.41695e-18
        cbs           1.98138e-18          -1.95577e-15
        cdg          -6.63583e-23          -2.58028e-15
        cdd           7.28874e-23           -3.6597e-18
        cds           1.62089e-23           3.15062e-15
        csg          -6.79114e-23          -3.86899e-15
        csd           3.57537e-23          -5.95051e-18
        css           5.54363e-23           4.72465e-15
        cgb          -1.53039e-15          -1.07848e-15
        cdb          -2.27379e-23          -5.66674e-16
        csb          -2.32786e-23          -8.49704e-16
        cbb           1.53039e-15           2.49486e-15
      capbd           3.89331e-15            2.9032e-15
      capbs           6.09388e-16             5.541e-15
         qg            1.3315e-15            6.6639e-15
         qb           -1.3315e-15          -4.50076e-15
         qd          -2.44824e-24          -8.65398e-16
         qs          -2.50553e-24          -1.29774e-15
       qinv                     0                     0
       qdef                     0                     0
       gcrg            0.00207831             0.0215402
       gtau                     0                     0
    vgsteff           4.61105e-09               0.28744
     vdseff           0.000785153              0.201951
       cgso           1.54076e-15           3.14548e-15
       cgdo           1.58045e-15           2.87022e-15
       cgbo                     0                     0
       weff           1.63164e-06           1.63164e-06
       leff            3.0878e-07            3.0878e-07

 Capacitor: Fixed capacitor
     device          c.xoutcap.c1         c.xlload_c.c1        c.xlload_l.c25
      model                     C                     C                     C
capacitance           2.06582e-13           9.30225e-15             2.237e-13
      dtemp                     0                     0                     0
     bv_max                 1e+99                 1e+99                 1e+99
          i                     0                     0                     0
          p                     0                     0                     0

 Capacitor: Fixed capacitor
     device        c.xlload_l.c24         c.xlload_l.c2         c.xlload_r.c2
      model                     C                     C                     C
capacitance              2.05e-13             2.237e-13           2.14745e-15
      dtemp                     0                     0                     0
     bv_max                 1e+99                 1e+99                 1e+99
          i                     0                     0                     0
          p                     0                     0                     0

 Capacitor: Fixed capacitor
     device         c.xlload_r.c1          c.xlsrc_c.c1         c.xlsrc_l.c25
      model                     C                     C                     C
capacitance           2.14745e-15           1.33262e-13             2.237e-13
      dtemp                     0                     0                     0
     bv_max                 1e+99                 1e+99                 1e+99
          i                     0                     0                     0
          p                     0                     0                     0

 Capacitor: Fixed capacitor
     device         c.xlsrc_l.c24          c.xlsrc_l.c2          c.xlsrc_r.c2
      model                     C                     C                     C
capacitance              2.05e-13             2.237e-13           6.49222e-16
      dtemp                     0                     0                     0
     bv_max                 1e+99                 1e+99                 1e+99
          i                     0                     0                     0
          p                     0                     0                     0

 Capacitor: Fixed capacitor
     device          c.xlsrc_r.c1         c.xlgate_l.c0        c.xlgate_l.c25
      model                     C                     C                     C
capacitance           6.49222e-16              5.38e-14              5.38e-14
      dtemp                     0                     0                     0
     bv_max                 1e+99                 1e+99                 1e+99
          i                     0                     0                     0
          p                     0                     0                     0

 Capacitor: Fixed capacitor
     device        c.xlgate_l.c24           c.xincap.c1
      model                     C                     C
capacitance             8.337e-15           2.06582e-13
      dtemp                     0                     0
     bv_max                 1e+99                 1e+99
          i                     0                     0
          p                    -0                    -0

 Inductor: Fixed inductor
     device         l.xlload_l.l3         l.xlload_l.l1          l.xlsrc_l.l3
      model                     L                     L                     L
 inductance              4.96e-09              4.96e-09              4.96e-09
      dtemp                     0                     0                     0
         nt                     0                     0                     0
       flux                     0                     0                     0
          v                     0                     0                     0
          i           0.000346009           0.000346009           0.000347716
          p                     0                     0                     0

 Inductor: Fixed inductor
     device          l.xlsrc_l.l1         l.xlgate_l.l1         l.xlgate_l.l0
      model                     L                     L                     L
 inductance              4.96e-09             7.605e-10             7.605e-10
      dtemp                     0                     0                     0
         nt                     0                     0                     0
       flux                     0                     0                     0
          v                     0                     0                     0
          i           0.000347716          -4.10313e-14          -4.10313e-14
          p                     0                    -0                    -0

 Resistor: Simple linear resistor
     device                 rload         r.xoutcap.rs2         r.xoutcap.rs1
      model                     R                     R                     R
 resistance                    50            0.00203518                 0.047
         ac                    50            0.00203518                 0.047
      dtemp                     0                     0                     0
     bv_max                 1e+99                 1e+99                 1e+99
      noisy                     1                     1                     1
          i                     0                     0                     0
          p                     0                     0                     0

 Resistor: Simple linear resistor
     device        r.xlload_c.rs2        r.xlload_c.rs1         r.xlload_l.r9
      model                     R                     R                     R
 resistance             0.0519153                 0.047                 2.059
         ac             0.0519153                 0.047                 2.059
      dtemp                     0                     0                     0
     bv_max                 1e+99                 1e+99                 1e+99
      noisy                     1                     1                     1
          i           8.55412e-15                     0           0.000346009
          p           3.79879e-30                     0           2.46508e-07

 Resistor: Simple linear resistor
     device        r.xlload_l.r10        r.xlload_l.r13         r.xlload_l.r4
      model                     R                     R                     R
 resistance                  5358                 9.064                 2.059
         ac                  5358                 9.064                 2.059
      dtemp                     0                     0                     0
     bv_max                 1e+99                 1e+99                 1e+99
      noisy                     1                     1                     1
          i                     0           2.44974e-17           0.000346009
          p                     0           5.43952e-33           2.46508e-07

 Resistor: Simple linear resistor
     device         r.xlload_l.r5        r.xlload_l.r26        r.xlload_l.r31
      model                     R                     R                     R
 resistance                  5358                  0.01                  0.01
         ac                  5358                  0.01                  0.01
      dtemp                     0                     0                     0
     bv_max                 1e+99                 1e+99                 1e+99
      noisy                     1                     1                     1
          i                     0           0.000346009           0.000346009
          p                     0           1.19722e-09           1.19722e-09

 Resistor: Simple linear resistor
     device         r.xlsrc_c.rs2         r.xlsrc_c.rs1          r.xlsrc_l.r9
      model                     R                     R                     R
 resistance            0.00318396                 0.047                 2.059
         ac            0.00318396                 0.047                 2.059
      dtemp                     0                     0                     0
     bv_max                 1e+99                 1e+99                 1e+99
      noisy                     1                     1                     1
          i                     0                     0           0.000347716
          p                     0                     0           2.48946e-07

 Resistor: Simple linear resistor
     device         r.xlsrc_l.r10         r.xlsrc_l.r13          r.xlsrc_l.r4
      model                     R                     R                     R
 resistance                  5358                 9.064                 2.059
         ac                  5358                 9.064                 2.059
      dtemp                     0                     0                     0
     bv_max                 1e+99                 1e+99                 1e+99
      noisy                     1                     1                     1
          i                     0                     0           0.000347716
          p                     0                     0           2.48946e-07

 Resistor: Simple linear resistor
     device          r.xlsrc_l.r5         r.xlsrc_l.r26         r.xlsrc_l.r31
      model                     R                     R                     R
 resistance                  5358                  0.01                  0.01
         ac                  5358                  0.01                  0.01
      dtemp                     0                     0                     0
     bv_max                 1e+99                 1e+99                 1e+99
      noisy                     1                     1                     1
          i                     0           0.000347716           0.000347716
          p                     0           1.20906e-09           1.20906e-09

 Resistor: Simple linear resistor
     device                 rbias         r.xlgate_l.r9         r.xlgate_l.r0
      model                     R                     R                     R
 resistance                 1e+06                 1.019                 1.019
         ac                 1e+06                 1.019                 1.019
      dtemp                     0                     0                     0
     bv_max                 1e+99                 1e+99                 1e+99
      noisy                     1                     1                     1
          i          -4.31746e-14           -4.1075e-14           -4.1075e-14
          p           1.86405e-21           1.71921e-27           1.71921e-27

 Resistor: Simple linear resistor
     device        r.xlgate_l.r10        r.xlgate_l.r13         r.xlgate_l.r1
      model                     R                     R                     R
 resistance                 21.56                 50.11                 21.56
         ac                 21.56                 50.11                 21.56
      dtemp                     0                     0                     0
     bv_max                 1e+99                 1e+99                 1e+99
      noisy                     1                     1                     1
          i                     0          -4.43114e-18                     0
          p                     0           9.83912e-34                     0

 Resistor: Simple linear resistor
     device        r.xlgate_l.r26        r.xlgate_l.r31          r.xincap.rs2
      model                     R                     R                     R
 resistance                  0.01                  0.01            0.00203518
         ac                  0.01                  0.01            0.00203518
      dtemp                     0                     0                     0
     bv_max                 1e+99                 1e+99                 1e+99
      noisy                     1                     1                     1
          i          -4.44089e-14          -4.44089e-14                     0
          p           1.97215e-29           1.97215e-29                     0

 Resistor: Simple linear resistor
     device          r.xincap.rs1               rsource
      model                     R                     R
 resistance                 0.047                    50
         ac                 0.047                    50
      dtemp                     0                     0
     bv_max                 1e+99                 1e+99
      noisy                     1                     1
          i                     0                     0
          p                     0                     0

 Vsource: Independent voltage source
     device                   vin                 vbias                   vdd
         dc                     0                     1                   1.8
      acmag                     1                     0                     0
      pulse         -         -         -
        sin         -         -         -
        exp         -         -         -
        pwl         -         -         -
       sffm         -         -         -
         am         -         -         -
    trnoise         -         -         -
   trrandom         -         -         -
    portnum                     0                     0                     0
         z0                     0                     0                     0
        pwr                     0                     0                     0
       freq                     0                     0                     0
      phase                     0                     0                     0
          i                     0          -4.31746e-14          -0.000348001
          p                     0          -4.31746e-14          -0.000626402

Doing analysis at TEMP = 27.000000 and TNOM = 27.000000

Using SPARSE 1.3 as Direct Linear Solver
Warning: Source conductance reset to 1.0e3 mho.

No. of Data Rows : 401
gain_db             =  -2.96162e+01
f_3db_low           =  1.75832e+09
f_3db_high          =  2.59571e+09
Doing analysis at TEMP = 27.000000 and TNOM = 27.000000

Using SPARSE 1.3 as Direct Linear Solver
Warning: Source conductance reset to 1.0e3 mho.

No. of Data Rows : 34

No. of Data Rows : 1
vin_re              =  9.82896e-01
vin_im              =  -1.21165e-01
iin_re              =  -3.42074e-04
iin_im              =  -2.42330e-03
vout_re             =  -3.26353e-02
vout_im             =  -2.50642e-03
vin_mag             =  9.90337e-01
iin_mag             =  2.44733e-03
vout_mag            =  3.27319e-02
zin_re              =  7.11149e+00
zin_im              =  -4.04608e+02
inoise_total = 5.068246e-07
onoise_total = 5.700409e-10
Note: Simulation executed from .control section 
[simulate_circuits] could not set process priority to high (nice -10): [Errno 13] Permission denied
