
Note: No compatibility mode selected!


Circuit: * rf lna - common source with inductive degeneration

Doing analysis at TEMP = 27.000000 and TNOM = 27.000000

Using SPARSE 1.3 as Direct Linear Solver
Warning: Source conductance reset to 1.0e3 mho.
Warning: Drain conductance reset to 1.0e3 mho.
 Reference value :  0.00000e+00
No. of Data Rows : 1
idd = 0.000192373
pdc = 0.000346271
 ASRC: Arbitrary Source 
     device b.xlload_r.brhrpoly_5      b.xlload_r.brend b.xlsrc_r.xsky130_fd_
      dtemp                     0                     0                     0
          i            2.2456e-06            2.2456e-06           2.34055e-08
          v           0.000633933           0.000152813           1.37577e-05
   pos_node                    30                     1                    18
   neg_node                    29                    30                    17

 ASRC: Arbitrary Source 
     device b.xlsrc_r.xsky130_fd_
      dtemp                     0
          i           2.34055e-08
          v           0.000668728
   pos_node                    17
   neg_node                     0

 BSIM4v5: Berkeley Short Channel IGFET Model-4
     device m.xn1.msky130_fd_pr__
      model xn1:sky130_fd_pr__rf_
          l               2.5e-07
          w              5.05e-06
          m                     1
         nf                     1
         sa                     0
         sb                     0
         sd                     0
        sca                     0
        scb                     0
        scc                     0
         sc                     0
        min                     0
         ad                     0
         as                     0
         pd                     0
         ps                     0
        nrd                     0
        nrs                     0
        off                     0
       rbdb                100000
       rbsb                100000
       rbpb                   200
       rbps                 0.001
       rbpd                 0.001
     delvto                     0
      mulu0                     1
        xgw              1.35e-06
      ngcon                     2
   trnqsmod                     0
   acnqsmod                     0
   rbodymod                     1
   rgatemod                     3
     geomod                     0
    rgeomod                     0
       gmbs           0.000198601
         gm             0.0013089
        gds           2.78436e-05
      vdsat              0.174552
        vth              0.572517
         id           0.000192327
        ibd          -1.80537e-12
        ibs          -5.69784e-15
        gbd                 1e-12
        gbs           1.26175e-12
       isub           4.59352e-08
      igidl                     0
      igisl                     0
        igs                     0
        igd                     0
        igb                     0
       igcs                     0
       igcd                     0
        vbs           -0.00445152
        vgs              0.795539
        vds               1.79092
        cgg           5.32113e-15
        cgs          -4.44482e-15
        cgd           2.90485e-17
        cbg          -4.00996e-16
        cbd           9.20589e-18
        cbs          -1.39136e-15
        cdg          -1.96844e-15
        cdd          -1.52018e-17
        cds           2.33483e-15
        csg           -2.9517e-15
        csd          -2.30526e-17
        css           3.50136e-15
        cgb          -9.05363e-16
        cdb          -3.51186e-16
        csb          -5.26603e-16
        cbb           1.78315e-15
      capbd           1.03091e-15
      capbs           1.26567e-15
         qg           4.53214e-15
         qb          -3.18095e-15
         qd          -5.40559e-16
         qs          -8.10631e-16
       qinv                     0
       qdef                     0
       gcrg             0.0148145
       gtau                     0
    vgsteff              0.224367
     vdseff               0.17111
       cgso           1.82385e-15
       cgdo           1.84336e-15
       cgbo                     0
       weff           5.03164e-06
       leff              2.58e-07

 Capacitor: Fixed capacitor
     device          c.xoutcap.c1         c.xlload_c.c1        c.xlload_l.c25
      model                     C                     C                     C
capacitance           2.06582e-13           1.33262e-13             2.237e-13
      dtemp                     0                     0                     0
     bv_max                 1e+99                 1e+99                 1e+99
          i                     0                     0                     0
          p                     0                     0                     0

 Capacitor: Fixed capacitor
     device        c.xlload_l.c24         c.xlload_l.c2         c.xlload_r.c2
      model                     C                     C                     C
capacitance              2.05e-13             2.237e-13           3.81963e-15
      dtemp                     0                     0                     0
     bv_max                 1e+99                 1e+99                 1e+99
          i                     0                     0                     0
          p                     0                     0                     0

 Capacitor: Fixed capacitor
     device         c.xlload_r.c1          c.xlsrc_c.c1          c.xlsrc_l.c1
      model                     C                     C                     C
capacitance           3.81963e-15           7.59422e-14              3.57e-13
      dtemp                     0                     0                     0
     bv_max                 1e+99                 1e+99                 1e+99
          i                     0                     0                     0
          p                     0                     0                     0

 Capacitor: Fixed capacitor
     device         c.xlsrc_l.c25         c.xlsrc_l.c24 c.xlsrc_r.xsky130_fd_
      model                     C                     C                     C
capacitance              3.57e-13             1.031e-13           6.49222e-16
      dtemp                     0                     0                     0
     bv_max                 1e+99                 1e+99                 1e+99
          i                     0                     0                     0
          p                     0                     0                     0

 Capacitor: Fixed capacitor
     device c.xlsrc_r.xsky130_fd_         c.xlgate_l.c1        c.xlgate_l.c25
      model                     C                     C                     C
capacitance           6.49222e-16              3.57e-13              3.57e-13
      dtemp                     0                     0                     0
     bv_max                 1e+99                 1e+99                 1e+99
          i                     0                     0                     0
          p                     0                     0                     0

 Capacitor: Fixed capacitor
     device        c.xlgate_l.c24           c.xincap.c1
      model                     C                     C
capacitance             1.031e-13           2.06582e-13
      dtemp                     0                     0
     bv_max                 1e+99                 1e+99
          i                     0                     0
          p                    -0                    -0

 Inductor: Fixed inductor
     device         l.xlload_l.l3         l.xlload_l.l1          l.xlsrc_l.l2
      model                     L                     L                     L
 inductance              4.96e-09              4.96e-09             2.895e-09
      dtemp                     0                     0                     0
         nt                     0                     0                     0
       flux                     0                     0                     0
          v                     0                     0                     0
          i           0.000190127           0.000190127           0.000192304
          p                     0                     0                     0

 Inductor: Fixed inductor
     device          l.xlsrc_l.l1         l.xlgate_l.l2         l.xlgate_l.l1
      model                     L                     L                     L
 inductance             2.895e-09             2.895e-09             2.895e-09
      dtemp                     0                     0                     0
         nt                     0                     0                     0
       flux                     0                     0                     0
          v                     0                     0                     0
          i           0.000192304          -3.24251e-14          -3.24251e-14
          p                     0                    -0                    -0

 Resistor: Simple linear resistor
     device                 rload         r.xoutcap.rs2         r.xoutcap.rs1
      model                     R                     R                     R
 resistance                    50            0.00203518                 0.047
         ac                    50            0.00203518                 0.047
      dtemp                     0                     0                     0
     bv_max                 1e+99                 1e+99                 1e+99
      noisy                     1                     1                     1
          i                     0                     0                     0
          p                     0                     0                     0

 Resistor: Simple linear resistor
     device        r.xlload_c.rs2        r.xlload_c.rs1         r.xlload_l.r9
      model                     R                     R                     R
 resistance            0.00318396                 0.047                 2.059
         ac            0.00318396                 0.047                 2.059
      dtemp                     0                     0                     0
     bv_max                 1e+99                 1e+99                 1e+99
      noisy                     1                     1                     1
          i                     0                     0           0.000190127
          p                     0                     0           7.44295e-08

 Resistor: Simple linear resistor
     device        r.xlload_l.r10        r.xlload_l.r13         r.xlload_l.r4
      model                     R                     R                     R
 resistance                  5358                 9.064                 2.059
         ac                  5358                 9.064                 2.059
      dtemp                     0                     0                     0
     bv_max                 1e+99                 1e+99                 1e+99
      noisy                     1                     1                     1
          i                     0           2.44974e-17           0.000190127
          p                     0           5.43952e-33           7.44295e-08

 Resistor: Simple linear resistor
     device         r.xlload_l.r5        r.xlload_l.r26        r.xlload_l.r31
      model                     R                     R                     R
 resistance                  5358                  0.01                  0.01
         ac                  5358                  0.01                  0.01
      dtemp                     0                     0                     0
     bv_max                 1e+99                 1e+99                 1e+99
      noisy                     1                     1                     1
          i                     0           0.000190127           0.000190127
          p                     0           3.61484e-10           3.61484e-10

 Resistor: Simple linear resistor
     device         r.xlsrc_c.rs2         r.xlsrc_c.rs1          r.xlsrc_l.r9
      model                     R                     R                     R
 resistance            0.00567223                 0.047                1.7645
         ac            0.00567223                 0.047                1.7645
      dtemp                     0                     0                     0
     bv_max                 1e+99                 1e+99                 1e+99
      noisy                     1                     1                     1
          i                     0                     0           0.000192304
          p                     0                     0           6.52524e-08

 Resistor: Simple linear resistor
     device         r.xlsrc_l.r10         r.xlsrc_l.r13          r.xlsrc_l.r2
      model                     R                     R                     R
 resistance                  3670                 9.312                1.7645
         ac                  3670                 9.312                1.7645
      dtemp                     0                     0                     0
     bv_max                 1e+99                 1e+99                 1e+99
      noisy                     1                     1                     1
          i                     0                     0           0.000192304
          p                     0                     0           6.52524e-08

 Resistor: Simple linear resistor
     device          r.xlsrc_l.r3         r.xlsrc_l.r26         r.xlsrc_l.r31
      model                     R                     R                     R
 resistance                  3670                  0.01                  0.01
         ac                  3670                  0.01                  0.01
      dtemp                     0                     0                     0
     bv_max                 1e+99                 1e+99                 1e+99
      noisy                     1                     1                     1
          i                     0           0.000192304           0.000192304
          p                     0           3.69806e-10           3.69806e-10

 Resistor: Simple linear resistor
     device                 rbias         r.xlgate_l.r9        r.xlgate_l.r10
      model                     R                     R                     R
 resistance                 1e+06                1.7645                  3670
         ac                 1e+06                1.7645                  3670
      dtemp                     0                     0                     0
     bv_max                 1e+99                 1e+99                 1e+99
      noisy                     1                     1                     1
          i          -3.95584e-14          -3.24038e-14                     0
          p           1.56487e-21           1.85273e-27                     0

 Resistor: Simple linear resistor
     device        r.xlgate_l.r13         r.xlgate_l.r2         r.xlgate_l.r3
      model                     R                     R                     R
 resistance                 9.312                1.7645                  3670
         ac                 9.312                1.7645                  3670
      dtemp                     0                     0                     0
     bv_max                 1e+99                 1e+99                 1e+99
      noisy                     1                     1                     1
          i                     0          -3.24038e-14                     0
          p                     0           1.85273e-27                     0

 Resistor: Simple linear resistor
     device        r.xlgate_l.r26        r.xlgate_l.r31          r.xincap.rs2
      model                     R                     R                     R
 resistance                  0.01                  0.01            0.00203518
         ac                  0.01                  0.01            0.00203518
      dtemp                     0                     0                     0
     bv_max                 1e+99                 1e+99                 1e+99
      noisy                     1                     1                     1
          i          -3.33067e-14          -3.33067e-14                     0
          p           1.10934e-29           1.10934e-29                     0

 Resistor: Simple linear resistor
     device          r.xincap.rs1               rsource
      model                     R                     R
 resistance                 0.047                    50
         ac                 0.047                    50
      dtemp                     0                     0
     bv_max                 1e+99                 1e+99
      noisy                     1                     1
          i                     0                     0
          p                     0                     0

 Vsource: Independent voltage source
     device                   vin                 vbias                   vdd
         dc                     0                   0.8                   1.8
      acmag                     1                     0                     0
      pulse         -         -         -
        sin         -         -         -
        exp         -         -         -
        pwl         -         -         -
       sffm         -         -         -
         am         -         -         -
    trnoise         -         -         -
   trrandom         -         -         -
    portnum                     0                     0                     0
         z0                     0                     0                     0
        pwr                     0                     0                     0
       freq                     0                     0                     0
      phase                     0                     0                     0
          i                     0          -3.95584e-14          -0.000192373
          p                     0          -3.16467e-14          -0.000346271

Doing analysis at TEMP = 27.000000 and TNOM = 27.000000

Using SPARSE 1.3 as Direct Linear Solver
Warning: Source conductance reset to 1.0e3 mho.
Warning: Drain conductance reset to 1.0e3 mho.

No. of Data Rows : 401
gain_db             =  -4.25493e+01
f_3db_low           =  9.97224e+08
 meas ac f_3db_high when gain_db_vector=-4.554934e+01 fall=1 failed!

Doing analysis at TEMP = 27.000000 and TNOM = 27.000000

Using SPARSE 1.3 as Direct Linear Solver
Warning: Source conductance reset to 1.0e3 mho.
Warning: Drain conductance reset to 1.0e3 mho.

No. of Data Rows : 201

No. of Data Rows : 1
vin_re              =  9.73003e-01
vin_im              =  -8.82635e-03
iin_re              =  -5.39948e-04
iin_im              =  -1.76527e-04
vout_re             =  -7.21966e-03
vout_im             =  5.57185e-04
vin_mag             =  9.73043e-01
iin_mag             =  5.68074e-04
vout_mag            =  7.25592e-03
zin_re              =  1.62318e+03
zin_im              =  -5.47050e+02
inoise_total = 3.338242e-05
onoise_total = 6.725560e-09
Note: Simulation executed from .control section 

Error: measure  f_3db_high  when(WHEN) : out of interval
[simulate_circuits] could not set process priority to high (nice -10): [Errno 13] Permission denied
