
Note: No compatibility mode selected!


Circuit: * rf lna - common source with inductive degeneration

Doing analysis at TEMP = 27.000000 and TNOM = 27.000000

Using SPARSE 1.3 as Direct Linear Solver
 Reference value :  0.00000e+00
No. of Data Rows : 1
idd = 0.00188314
pdc = 0.00338966
Doing analysis at TEMP = 27.000000 and TNOM = 27.000000

Using SPARSE 1.3 as Direct Linear Solver

No. of Data Rows : 401
gain_db             =  4.512690e+00
f_3db_low           =  1.780296e+09
f_3db_high          =  6.194108e+09
Doing analysis at TEMP = 27.000000 and TNOM = 27.000000

Using SPARSE 1.3 as Direct Linear Solver

No. of Data Rows : 109

No. of Data Rows : 1
vin_re              =  9.360451e-01
vin_im              =  -1.236002e-01
iin_re              =  -1.279098e-03
iin_im              =  -2.472004e-03
vout_re             =  -1.499458e+00
vout_im             =  -5.208646e-01
out_noise = 4.28271E-18
in_noise = 1.69963E-18
inoise_total = 6.911509e-09
onoise_total = 1.178622e-08
Note: Simulation executed from .control section 
