
Note: No compatibility mode selected!


Circuit: * rf lna - common source with inductive degeneration

Doing analysis at TEMP = 27.000000 and TNOM = 27.000000

Using SPARSE 1.3 as Direct Linear Solver
Warning: Source conductance reset to 1.0e3 mho.
 Reference value :  0.00000e+00
No. of Data Rows : 1
idd = 2.40938E-05
pdc = 4.33689E-05
 ASRC: Arbitrary Source 
     device b.xlload_r.xsky130_fd b.xlload_r.xsky130_fd b.xlsrc_r.brhrpoly_0p
      dtemp                     0                     0                     0
          i           1.36146e-08           1.36146e-08           1.34677e-08
          v           1.78668e-06           4.77704e-05           7.49079e-05
   pos_node                     1                    30                    18
   neg_node                    30                    29                     0

 ASRC: Arbitrary Source 
     device       b.xlsrc_r.brend
      dtemp                     0
          i           1.34677e-08
          v           1.05178e-05
   pos_node                    17
   neg_node                    18

 BSIM4v5: Berkeley Short Channel IGFET Model-4
     device m.xn1.xsky130_fd_pr__ m.xn1.xsky130_fd_pr__
      model xn1.xsky130_fd_pr__rf xn1.xsky130_fd_pr__rf
          l               2.5e-07               2.5e-07
          w              1.65e-06              1.65e-06
          m                     2                     4
         nf                     1                     1
         sa                     0                     0
         sb                     0                     0
         sd                     0                     0
        sca                     0                     0
        scb                     0                     0
        scc                     0                     0
         sc                     0                     0
        min                     0                     0
         ad              4.95e-13              2.31e-13
         as                     0              3.47e-13
         pd               3.9e-06              1.93e-06
         ps                     0               2.9e-06
        nrd                  36.4                  72.8
        nrs                     0                 48.53
        off                     0                     0
       rbdb                100000                100000
       rbsb                100000                100000
       rbpb                  1800                  1800
       rbps                 0.001                 0.001
       rbpd                 0.001                 0.001
     delvto                     0                     0
      mulu0                     1                     1
        xgw              1.35e-06              1.35e-06
      ngcon                     2                     2
   trnqsmod                     0                     0
   acnqsmod                     0                     0
   rbodymod                     1                     1
   rgatemod                     3                     3
     geomod                     0                     0
    rgeomod                     0                     0
       gmbs           7.28966e-15           6.81213e-05
         gm           2.35749e-14           0.000339667
        gds           1.01763e-11           5.55396e-06
      vdsat             0.0415865             0.0755493
        vth              0.703033              0.700386
         id           8.70164e-16           2.40838e-05
        ibd           3.18423e-25          -7.19878e-12
        ibs          -2.21875e-16          -3.04348e-15
        gbd           2.11209e-12                 4e-12
        gbs           2.59652e-12           4.13785e-12
       isub           7.27083e-35           1.00081e-08
      igidl                     0                     0
      igisl                     0                     0
        igs                     0                     0
        igd                     0                     0
        igb                     0                     0
       igcs                     0                     0
       igcd                     0                     0
        vbs          -8.54257e-05           -0.00073525
        vgs          -8.54257e-05               0.69926
        vds          -8.54257e-05               1.79841
        cgg           1.53237e-15            5.8587e-15
        cgs          -1.98145e-18          -4.53138e-15
        cgd          -1.06584e-22           5.72581e-18
        cbg          -1.53237e-15          -8.02886e-16
        cbd           -2.0017e-23           2.11863e-18
        cbs           1.98139e-18          -1.66859e-15
        cdg          -6.92373e-23          -2.02259e-15
        cdd            8.4467e-23          -3.11601e-18
        cds           8.49402e-24           2.48029e-15
        csg          -6.93357e-23          -3.03322e-15
        csd           4.21342e-23          -4.72843e-18
        css           5.09678e-23           3.71968e-15
        cgb          -1.53039e-15          -1.33304e-15
        cdb          -2.37237e-23          -4.54586e-16
        csb          -2.37662e-23           -6.8173e-16
        cbb           1.53039e-15           2.46936e-15
      capbd           3.89331e-15           2.90047e-15
      capbs           6.09479e-16           5.55318e-15
         qg            1.3315e-15           4.70376e-15
         qb           -1.3315e-15          -4.30896e-15
         qd          -2.55445e-24          -1.57938e-16
         qs          -2.55808e-24          -2.36857e-16
       qinv                     0                     0
       qdef                     0                     0
       gcrg            0.00207832            0.00743895
       gtau                     0                     0
    vgsteff           4.61079e-09             0.0465704
     vdseff           4.69946e-05             0.0740897
       cgso           1.54102e-15           3.14465e-15
       cgdo           1.58045e-15           2.83196e-15
       cgbo                     0                     0
       weff           1.63164e-06           1.63164e-06
       leff            3.0878e-07            3.0878e-07

 Capacitor: Fixed capacitor
     device          c.xoutcap.c1         c.xlload_l.c0        c.xlload_l.c25
      model                     C                     C                     C
capacitance           2.06582e-13              5.38e-14              5.38e-14
      dtemp                     0                     0                     0
     bv_max                 1e+99                 1e+99                 1e+99
          i                     0                     0                     0
          p                     0                     0                     0

 Capacitor: Fixed capacitor
     device        c.xlload_l.c24 c.xlload_r.xsky130_fd c.xlload_r.xsky130_fd
      model                     C                     C                     C
capacitance             8.337e-15           1.98892e-15           1.98892e-15
      dtemp                     0                     0                     0
     bv_max                 1e+99                 1e+99                 1e+99
          i                     0                     0                     0
          p                     0                     0                     0

 Capacitor: Fixed capacitor
     device          c.xlsrc_c.c1          c.xlsrc_l.c1         c.xlsrc_l.c25
      model                     C                     C                     C
capacitance           2.06582e-13              3.57e-13              3.57e-13
      dtemp                     0                     0                     0
     bv_max                 1e+99                 1e+99                 1e+99
          i                     0                     0                     0
          p                     0                     0                     0

 Capacitor: Fixed capacitor
     device         c.xlsrc_l.c24          c.xlsrc_r.c2          c.xlsrc_r.c1
      model                     C                     C                     C
capacitance             1.031e-13           6.49222e-16           6.49222e-16
      dtemp                     0                     0                     0
     bv_max                 1e+99                 1e+99                 1e+99
          i                     0                     0                     0
          p                     0                     0                     0

 Capacitor: Fixed capacitor
     device         c.xlgate_l.c0        c.xlgate_l.c25        c.xlgate_l.c24
      model                     C                     C                     C
capacitance              5.38e-14              5.38e-14             8.337e-15
      dtemp                     0                     0                     0
     bv_max                 1e+99                 1e+99                 1e+99
          i                     0                     0                     0
          p                     0                     0                    -0

 Capacitor: Fixed capacitor
     device           c.xincap.c1
      model                     C
capacitance           2.06582e-13
      dtemp                     0
     bv_max                 1e+99
          i                     0
          p                    -0

 Inductor: Fixed inductor
     device         l.xlload_l.l1         l.xlload_l.l0          l.xlsrc_l.l2
      model                     L                     L                     L
 inductance             7.605e-10             7.605e-10             2.895e-09
      dtemp                     0                     0                     0
         nt                     0                     0                     0
       flux                     0                     0                     0
          v                     0                     0                     0
          i           2.40802e-05           2.40802e-05           2.40704e-05
          p                     0                     0                     0

 Inductor: Fixed inductor
     device          l.xlsrc_l.l1         l.xlgate_l.l1         l.xlgate_l.l0
      model                     L                     L                     L
 inductance             2.895e-09             7.605e-10             7.605e-10
      dtemp                     0                     0                     0
         nt                     0                     0                     0
       flux                     0                     0                     0
          v                     0                     0                     0
          i           2.40704e-05          -2.86594e-14          -2.86594e-14
          p                     0                    -0                    -0

 Resistor: Simple linear resistor
     device                 rload         r.xoutcap.rs2         r.xoutcap.rs1
      model                     R                     R                     R
 resistance                    50            0.00203518                 0.047
         ac                    50            0.00203518                 0.047
      dtemp                     0                     0                     0
     bv_max                 1e+99                 1e+99                 1e+99
      noisy                     1                     1                     1
          i                     0                     0                     0
          p                     0                     0                     0

 Resistor: Simple linear resistor
     device         r.xlload_l.r9         r.xlload_l.r0        r.xlload_l.r10
      model                     R                     R                     R
 resistance                 1.019                 1.019                 21.56
         ac                 1.019                 1.019                 21.56
      dtemp                     0                     0                     0
     bv_max                 1e+99                 1e+99                 1e+99
      noisy                     1                     1                     1
          i           2.40802e-05           2.40802e-05                     0
          p           5.90875e-10           5.90875e-10                     0

 Resistor: Simple linear resistor
     device        r.xlload_l.r13         r.xlload_l.r1        r.xlload_l.r26
      model                     R                     R                     R
 resistance                 50.11                 21.56                  0.01
         ac                 50.11                 21.56                  0.01
      dtemp                     0                     0                     0
     bv_max                 1e+99                 1e+99                 1e+99
      noisy                     1                     1                     1
          i          -8.86229e-18                     0           2.40802e-05
          p           3.93565e-33                     0           5.79857e-12

 Resistor: Simple linear resistor
     device        r.xlload_l.r31         r.xlsrc_c.rs2         r.xlsrc_c.rs1
      model                     R                     R                     R
 resistance                  0.01            0.00203518                 0.047
         ac                  0.01            0.00203518                 0.047
      dtemp                     0                     0                     0
     bv_max                 1e+99                 1e+99                 1e+99
      noisy                     1                     1                     1
          i           2.40802e-05                     0                     0
          p           5.79857e-12                     0                     0

 Resistor: Simple linear resistor
     device          r.xlsrc_l.r9         r.xlsrc_l.r10         r.xlsrc_l.r13
      model                     R                     R                     R
 resistance                1.7645                  3670                 9.312
         ac                1.7645                  3670                 9.312
      dtemp                     0                     0                     0
     bv_max                 1e+99                 1e+99                 1e+99
      noisy                     1                     1                     1
          i           2.40704e-05                     0                     0
          p           1.02232e-09                     0                     0

 Resistor: Simple linear resistor
     device          r.xlsrc_l.r2          r.xlsrc_l.r3         r.xlsrc_l.r26
      model                     R                     R                     R
 resistance                1.7645                  3670                  0.01
         ac                1.7645                  3670                  0.01
      dtemp                     0                     0                     0
     bv_max                 1e+99                 1e+99                 1e+99
      noisy                     1                     1                     1
          i           2.40704e-05                     0           2.40704e-05
          p           1.02232e-09                     0           5.79382e-12

 Resistor: Simple linear resistor
     device         r.xlsrc_l.r31                 rbias         r.xlgate_l.r9
      model                     R                     R                     R
 resistance                  0.01                 1e+06                 1.019
         ac                  0.01                 1e+06                 1.019
      dtemp                     0                     0                     0
     bv_max                 1e+99                 1e+99                 1e+99
      noisy                     1                     1                     1
          i           2.40704e-05          -3.02277e-14          -2.87634e-14
          p           5.79382e-12           9.13711e-22           8.43052e-28

 Resistor: Simple linear resistor
     device         r.xlgate_l.r0        r.xlgate_l.r10        r.xlgate_l.r13
      model                     R                     R                     R
 resistance                 1.019                 21.56                 50.11
         ac                 1.019                 21.56                 50.11
      dtemp                     0                     0                     0
     bv_max                 1e+99                 1e+99                 1e+99
      noisy                     1                     1                     1
          i          -2.86544e-14                     0          -6.64672e-18
          p           8.36677e-28                     0            2.2138e-33

 Resistor: Simple linear resistor
     device         r.xlgate_l.r1        r.xlgate_l.r26        r.xlgate_l.r31
      model                     R                     R                     R
 resistance                 21.56                  0.01                  0.01
         ac                 21.56                  0.01                  0.01
      dtemp                     0                     0                     0
     bv_max                 1e+99                 1e+99                 1e+99
      noisy                     1                     1                     1
          i                     0          -3.33067e-14          -3.33067e-14
          p                     0           1.10934e-29           1.10934e-29

 Resistor: Simple linear resistor
     device          r.xincap.rs2          r.xincap.rs1               rsource
      model                     R                     R                     R
 resistance            0.00203518                 0.047                    50
         ac            0.00203518                 0.047                    50
      dtemp                     0                     0                     0
     bv_max                 1e+99                 1e+99                 1e+99
      noisy                     1                     1                     1
          i                     0                     0                     0
          p                     0                     0                     0

 Vsource: Independent voltage source
     device                   vin                 vbias                   vdd
         dc                     0                   0.7                   1.8
      acmag                     1                     0                     0
      pulse         -         -         -
        sin         -         -         -
        exp         -         -         -
        pwl         -         -         -
       sffm         -         -         -
         am         -         -         -
    trnoise         -         -         -
   trrandom         -         -         -
    portnum                     0                     0                     0
         z0                     0                     0                     0
        pwr                     0                     0                     0
       freq                     0                     0                     0
      phase                     0                     0                     0
          i                     0          -3.02277e-14          -2.40938e-05
          p                     0          -2.11594e-14          -4.33689e-05

Doing analysis at TEMP = 27.000000 and TNOM = 27.000000

Using SPARSE 1.3 as Direct Linear Solver
Warning: Source conductance reset to 1.0e3 mho.

No. of Data Rows : 401
gain_db             =  -4.50678e+01
f_3db_low           =  4.52971e+09
 meas ac f_3db_high when gain_db_vector=-4.806778e+01 fall=1 failed!

Doing analysis at TEMP = 27.000000 and TNOM = 27.000000

Using SPARSE 1.3 as Direct Linear Solver
Warning: Source conductance reset to 1.0e3 mho.

No. of Data Rows : 69

No. of Data Rows : 1
vin_re              =  9.82439e-01
vin_im              =  -1.20503e-01
iin_re              =  -3.51223e-04
iin_im              =  -2.41005e-03
vout_re             =  2.57450e-03
vout_im             =  -4.88666e-03
vin_mag             =  9.89802e-01
iin_mag             =  2.43551e-03
vout_mag            =  5.52352e-03
zin_re              =  9.20946e+00
zin_im              =  -4.06310e+02
inoise_total = 2.786891e-05
onoise_total = 2.139957e-09
Note: Simulation executed from .control section 

Error: measure  f_3db_high  when(WHEN) : out of interval
[simulate_circuits] could not set process priority to high (nice -10): [Errno 13] Permission denied
