
Note: No compatibility mode selected!


Circuit: * rf lna - common source with inductive degeneration

Doing analysis at TEMP = 27.000000 and TNOM = 27.000000

Using SPARSE 1.3 as Direct Linear Solver
Warning: Source conductance reset to 1.0e3 mho.
Warning: Drain conductance reset to 1.0e3 mho.
 Reference value :  0.00000e+00
No. of Data Rows : 1
idd = 0.000452959
pdc = 0.000815327
 ASRC: Arbitrary Source 
     device b.xlload_r.xsky130_fd b.xlload_r.xsky130_fd b.xlsrc_r.brhrpoly_1p
      dtemp                     0                     0                     0
          i           2.19368e-07           2.19368e-07           6.49962e-07
          v           5.09785e-05             0.0015558           0.000747619
   pos_node                     1                    30                    18
   neg_node                    30                    29                     0

 ASRC: Arbitrary Source 
     device       b.xlsrc_r.brend
      dtemp                     0
          i           6.49962e-07
          v           0.000183003
   pos_node                    17
   neg_node                    18

 BSIM4v5: Berkeley Short Channel IGFET Model-4
     device m.xn1.msky130_fd_pr__
      model xn1:sky130_fd_pr__rf_
          l               1.8e-07
          w              5.05e-06
          m                     1
         nf                     1
         sa                     0
         sb                     0
         sd                     0
        sca                     0
        scb                     0
        scc                     0
         sc                     0
        min                     0
         ad                     0
         as                     0
         pd                     0
         ps                     0
        nrd                     0
        nrs                     0
        off                     0
       rbdb                100000
       rbsb                100000
       rbpb                   200
       rbps                 0.001
       rbpd                 0.001
     delvto                     0
      mulu0                     1
        xgw              1.35e-06
      ngcon                     2
   trnqsmod                     0
   acnqsmod                     0
   rbodymod                     1
   rgatemod                     3
     geomod                     0
    rgeomod                     0
       gmbs           0.000237121
         gm            0.00213792
        gds           9.42729e-05
      vdsat              0.177119
        vth              0.600902
         id           0.000452847
        ibd          -1.79935e-12
        ibs          -1.23459e-14
        gbd                 1e-12
        gbs           1.22304e-12
       isub           1.11932e-07
      igidl                     0
      igisl                     0
        igs                     0
        igd                     0
        igb                     0
       igcs                     0
       igcd                     0
        vbs           -0.00980472
        vgs              0.890173
        vds               1.77954
        cgg           3.37782e-15
        cgs          -2.72612e-15
        cgd           3.74992e-17
        cbg          -1.62686e-16
        cbd           1.38234e-17
        cbs          -1.02536e-15
        cdg          -1.28636e-15
        cdd          -2.04371e-17
        cds           1.50084e-15
        csg          -1.92878e-15
        csd          -3.08855e-17
        css           2.25064e-15
        cgb            -6.892e-16
        cdb          -1.94051e-16
        csb          -2.90975e-16
        cbb           1.17423e-15
      capbd           1.03135e-15
      capbs           1.26432e-15
         qg            3.1253e-15
         qb          -2.03797e-15
         qd          -4.35009e-16
         qs          -6.52328e-16
       qinv                     0
       qdef                     0
       gcrg             0.0311934
       gtau                     0
    vgsteff              0.289932
     vdseff              0.173724
       cgso           1.91729e-15
       cgdo           1.69623e-15
       cgbo                     0
       weff           5.03164e-06
       leff              1.88e-07

 Capacitor: Fixed capacitor
     device          c.xoutcap.c1         c.xlload_c.c1         c.xlload_l.c1
      model                     C                     C                     C
capacitance           2.06582e-13           9.30225e-15              3.57e-13
      dtemp                     0                     0                     0
     bv_max                 1e+99                 1e+99                 1e+99
          i                     0                     0                     0
          p                     0                     0                     0

 Capacitor: Fixed capacitor
     device        c.xlload_l.c25        c.xlload_l.c24 c.xlload_r.xsky130_fd
      model                     C                     C                     C
capacitance              3.57e-13             1.031e-13           1.21725e-15
      dtemp                     0                     0                     0
     bv_max                 1e+99                 1e+99                 1e+99
          i                     0                     0                     0
          p                     0                     0                     0

 Capacitor: Fixed capacitor
     device c.xlload_r.xsky130_fd          c.xlsrc_c.c1          c.xlsrc_l.c0
      model                     C                     C                     C
capacitance           1.21725e-15           7.59422e-14              5.38e-14
      dtemp                     0                     0                     0
     bv_max                 1e+99                 1e+99                 1e+99
          i                     0                     0                     0
          p                     0                     0                     0

 Capacitor: Fixed capacitor
     device         c.xlsrc_l.c25         c.xlsrc_l.c24          c.xlsrc_r.c2
      model                     C                     C                     C
capacitance              5.38e-14             8.337e-15           1.30076e-15
      dtemp                     0                     0                     0
     bv_max                 1e+99                 1e+99                 1e+99
          i                     0                     0                     0
          p                     0                     0                     0

 Capacitor: Fixed capacitor
     device          c.xlsrc_r.c1        c.xlgate_l.c25        c.xlgate_l.c24
      model                     C                     C                     C
capacitance           1.30076e-15             2.237e-13              2.05e-13
      dtemp                     0                     0                     0
     bv_max                 1e+99                 1e+99                 1e+99
          i                     0                     0                     0
          p                     0                     0                    -0

 Capacitor: Fixed capacitor
     device         c.xlgate_l.c2           c.xincap.c1
      model                     C                     C
capacitance             2.237e-13           2.06582e-13
      dtemp                     0                     0
     bv_max                 1e+99                 1e+99
          i                     0                     0
          p                     0                    -0

 Inductor: Fixed inductor
     device         l.xlload_l.l2         l.xlload_l.l1          l.xlsrc_l.l1
      model                     L                     L                     L
 inductance             2.895e-09             2.895e-09             7.605e-10
      dtemp                     0                     0                     0
         nt                     0                     0                     0
       flux                     0                     0                     0
          v                     0                     0                     0
          i            0.00045274            0.00045274           0.000452197
          p                     0                     0                     0

 Inductor: Fixed inductor
     device          l.xlsrc_l.l0         l.xlgate_l.l3         l.xlgate_l.l1
      model                     L                     L                     L
 inductance             7.605e-10              4.96e-09              4.96e-09
      dtemp                     0                     0                     0
         nt                     0                     0                     0
       flux                     0                     0                     0
          v                     0                     0                     0
          i           0.000452197          -3.58913e-14          -3.58913e-14
          p                     0                    -0                    -0

 Resistor: Simple linear resistor
     device                 rload         r.xoutcap.rs2         r.xoutcap.rs1
      model                     R                     R                     R
 resistance                    50            0.00203518                 0.047
         ac                    50            0.00203518                 0.047
      dtemp                     0                     0                     0
     bv_max                 1e+99                 1e+99                 1e+99
      noisy                     1                     1                     1
          i                     0                     0                     0
          p                     0                     0                     0

 Resistor: Simple linear resistor
     device        r.xlload_c.rs2        r.xlload_c.rs1         r.xlload_l.r9
      model                     R                     R                     R
 resistance             0.0519153                 0.047                1.7645
         ac             0.0519153                 0.047                1.7645
      dtemp                     0                     0                     0
     bv_max                 1e+99                 1e+99                 1e+99
      noisy                     1                     1                     1
          i           8.55412e-15                     0            0.00045274
          p           3.79879e-30                     0           3.61676e-07

 Resistor: Simple linear resistor
     device        r.xlload_l.r10        r.xlload_l.r13         r.xlload_l.r2
      model                     R                     R                     R
 resistance                  3670                 9.312                1.7645
         ac                  3670                 9.312                1.7645
      dtemp                     0                     0                     0
     bv_max                 1e+99                 1e+99                 1e+99
      noisy                     1                     1                     1
          i                     0             4.769e-17            0.00045274
          p                     0           2.11786e-32           3.61676e-07

 Resistor: Simple linear resistor
     device         r.xlload_l.r3        r.xlload_l.r26        r.xlload_l.r31
      model                     R                     R                     R
 resistance                  3670                  0.01                  0.01
         ac                  3670                  0.01                  0.01
      dtemp                     0                     0                     0
     bv_max                 1e+99                 1e+99                 1e+99
      noisy                     1                     1                     1
          i                     0            0.00045274            0.00045274
          p                     0           2.04973e-09           2.04973e-09

 Resistor: Simple linear resistor
     device         r.xlsrc_c.rs2         r.xlsrc_c.rs1          r.xlsrc_l.r9
      model                     R                     R                     R
 resistance            0.00567223                 0.047                 1.019
         ac            0.00567223                 0.047                 1.019
      dtemp                     0                     0                     0
     bv_max                 1e+99                 1e+99                 1e+99
      noisy                     1                     1                     1
          i                     0                     0           0.000452197
          p                     0                     0           2.08368e-07

 Resistor: Simple linear resistor
     device          r.xlsrc_l.r0         r.xlsrc_l.r10         r.xlsrc_l.r13
      model                     R                     R                     R
 resistance                 1.019                 21.56                 50.11
         ac                 1.019                 21.56                 50.11
      dtemp                     0                     0                     0
     bv_max                 1e+99                 1e+99                 1e+99
      noisy                     1                     1                     1
          i           0.000452197                     0                     0
          p           2.08368e-07                     0                     0

 Resistor: Simple linear resistor
     device          r.xlsrc_l.r1         r.xlsrc_l.r26         r.xlsrc_l.r31
      model                     R                     R                     R
 resistance                 21.56                  0.01                  0.01
         ac                 21.56                  0.01                  0.01
      dtemp                     0                     0                     0
     bv_max                 1e+99                 1e+99                 1e+99
      noisy                     1                     1                     1
          i                     0           0.000452197           0.000452197
          p                     0           2.04482e-09           2.04482e-09

 Resistor: Simple linear resistor
     device                 rbias         r.xlgate_l.r9        r.xlgate_l.r10
      model                     R                     R                     R
 resistance                 1e+06                 2.059                  5358
         ac                 1e+06                 2.059                  5358
      dtemp                     0                     0                     0
     bv_max                 1e+99                 1e+99                 1e+99
      noisy                     1                     1                     1
          i          -4.36135e-14          -3.59111e-14                     0
          p           1.90214e-21           2.65529e-27                     0

 Resistor: Simple linear resistor
     device        r.xlgate_l.r13         r.xlgate_l.r4         r.xlgate_l.r5
      model                     R                     R                     R
 resistance                 9.064                 2.059                  5358
         ac                 9.064                 2.059                  5358
      dtemp                     0                     0                     0
     bv_max                 1e+99                 1e+99                 1e+99
      noisy                     1                     1                     1
          i                     0          -3.59111e-14                     0
          p                     0           2.65529e-27                     0

 Resistor: Simple linear resistor
     device        r.xlgate_l.r26        r.xlgate_l.r31          r.xincap.rs2
      model                     R                     R                     R
 resistance                  0.01                  0.01            0.00203518
         ac                  0.01                  0.01            0.00203518
      dtemp                     0                     0                     0
     bv_max                 1e+99                 1e+99                 1e+99
      noisy                     1                     1                     1
          i          -4.44089e-14          -4.44089e-14                     0
          p           1.97215e-29           1.97215e-29                     0

 Resistor: Simple linear resistor
     device          r.xincap.rs1               rsource
      model                     R                     R
 resistance                 0.047                    50
         ac                 0.047                    50
      dtemp                     0                     0
     bv_max                 1e+99                 1e+99
      noisy                     1                     1
          i                     0                     0
          p                     0                     0

 Vsource: Independent voltage source
     device                   vin                 vbias                   vdd
         dc                     0                   0.9                   1.8
      acmag                     1                     0                     0
      pulse         -         -         -
        sin         -         -         -
        exp         -         -         -
        pwl         -         -         -
       sffm         -         -         -
         am         -         -         -
    trnoise         -         -         -
   trrandom         -         -         -
    portnum                     0                     0                     0
         z0                     0                     0                     0
        pwr                     0                     0                     0
       freq                     0                     0                     0
      phase                     0                     0                     0
          i                     0          -4.36135e-14          -0.000452959
          p                     0          -3.92522e-14          -0.000815327

Doing analysis at TEMP = 27.000000 and TNOM = 27.000000

Using SPARSE 1.3 as Direct Linear Solver
Warning: Source conductance reset to 1.0e3 mho.
Warning: Drain conductance reset to 1.0e3 mho.

No. of Data Rows : 401
gain_db             =  -1.88403e+01
f_3db_low           =  2.79719e+09
f_3db_high          =  6.54866e+09
Doing analysis at TEMP = 27.000000 and TNOM = 27.000000

Using SPARSE 1.3 as Direct Linear Solver
Warning: Source conductance reset to 1.0e3 mho.
Warning: Drain conductance reset to 1.0e3 mho.

No. of Data Rows : 74

No. of Data Rows : 1
vin_re              =  9.81778e-01
vin_im              =  -1.13910e-02
iin_re              =  -3.64448e-04
iin_im              =  -2.27820e-04
vout_re             =  -1.11525e-01
vout_im             =  -1.23768e-02
vin_mag             =  9.81844e-01
iin_mag             =  4.29796e-04
vout_mag            =  1.12213e-01
zin_re              =  1.92294e+03
zin_im              =  -1.23330e+03
inoise_total = 3.253619e-07
onoise_total = 4.404434e-09
Note: Simulation executed from .control section 
[simulate_circuits] could not set process priority to high (nice -10): [Errno 13] Permission denied
