
Note: No compatibility mode selected!


Circuit: * rf lna - common source with inductive degeneration

Doing analysis at TEMP = 27.000000 and TNOM = 27.000000

Using SPARSE 1.3 as Direct Linear Solver
 Reference value :  0.00000e+00
No. of Data Rows : 1
idd = 0.00116825
pdc = 0.00210286
Doing analysis at TEMP = 27.000000 and TNOM = 27.000000

Using SPARSE 1.3 as Direct Linear Solver

No. of Data Rows : 401
gain_db             =  7.979390e-01
f_3db_low           =  1.641840e+09
f_3db_high          =  8.337427e+09
Doing analysis at TEMP = 27.000000 and TNOM = 27.000000

Using SPARSE 1.3 as Direct Linear Solver

No. of Data Rows : 142

No. of Data Rows : 1
vin_re              =  9.757152e-01
vin_im              =  -7.404366e-02
iin_re              =  -4.856965e-04
iin_im              =  -1.480873e-03
vout_re             =  -9.650598e-01
vout_im             =  -4.682334e-01
out_noise = 2.87675E-18
in_noise = 2.50015E-18
inoise_total = 1.474529e-08
onoise_total = 1.259274e-08
Note: Simulation executed from .control section 
