
Note: No compatibility mode selected!


Circuit: * rf lna - common source with inductive degeneration

Doing analysis at TEMP = 27.000000 and TNOM = 27.000000

Using SPARSE 1.3 as Direct Linear Solver
 Reference value :  0.00000e+00
No. of Data Rows : 1
idd = 0.00116825
pdc = 0.00210286
Doing analysis at TEMP = 27.000000 and TNOM = 27.000000

Using SPARSE 1.3 as Direct Linear Solver

No. of Data Rows : 401
gain_db             =  7.971559e-01
f_3db_low           =  1.632871e+09
f_3db_high          =  8.336815e+09
Doing analysis at TEMP = 27.000000 and TNOM = 27.000000

Using SPARSE 1.3 as Direct Linear Solver

No. of Data Rows : 142

No. of Data Rows : 1
vin_re              =  9.755052e-01
vin_im              =  -7.391685e-02
iin_re              =  -4.898955e-04
iin_im              =  -1.478337e-03
vout_re             =  -9.699785e-01
vout_im             =  -4.571688e-01
out_noise = 2.88373E-18
in_noise = 2.5079E-18
inoise_total = 1.466267e-08
onoise_total = 1.257159e-08
Note: Simulation executed from .control section 
