
Note: No compatibility mode selected!


Circuit: * rf lna - common source with inductive degeneration

Doing analysis at TEMP = 27.000000 and TNOM = 27.000000

Using SPARSE 1.3 as Direct Linear Solver
Warning: Source conductance reset to 1.0e3 mho.
 Reference value :  0.00000e+00
No. of Data Rows : 1
idd = 4.45944E-05
pdc = 8.02699E-05
 ASRC: Arbitrary Source 
     device b.xlload_r.xsky130_fd b.xlload_r.xsky130_fd b.xlsrc_r.xsky130_fd_
      dtemp                     0                     0                     0
          i           2.51987e-08           2.51987e-08           5.42477e-09
          v           3.30689e-06           8.84165e-05           3.18869e-06
   pos_node                     1                    30                    18
   neg_node                    30                    29                    17

 ASRC: Arbitrary Source 
     device b.xlsrc_r.xsky130_fd_
      dtemp                     0
          i           5.42477e-09
          v           0.000154993
   pos_node                    17
   neg_node                     0

 BSIM4v5: Berkeley Short Channel IGFET Model-4
     device m.xn1.xsky130_fd_pr__ m.xn1.xsky130_fd_pr__
      model xn1.xsky130_fd_pr__rf xn1.xsky130_fd_pr__rf
          l               2.5e-07               2.5e-07
          w              5.05e-06              5.05e-06
          m                     2                     2
         nf                     1                     1
         sa                     0                     0
         sb                     0                     0
         sd                     0                     0
        sca                     0                     0
        scb                     0                     0
        scc                     0                     0
         sc                     0                     0
        min                     0                     0
         ad             1.515e-12              7.07e-13
         as                     0             1.414e-12
         pd              1.07e-05              5.33e-06
         ps                     0             1.066e-05
        nrd                 12.13                 24.27
        nrs                     0                 12.13
        off                     0                     0
       rbdb                100000                100000
       rbsb                100000                100000
       rbpb                   200                   200
       rbps                 0.001                 0.001
       rbpd                 0.001                 0.001
     delvto                     0                     0
      mulu0                     1                     1
        xgw               1.3e-06               1.3e-06
      ngcon                     2                     2
   trnqsmod                     0                     0
   acnqsmod                     0                     0
   rbodymod                     1                     1
   rgatemod                     3                     3
     geomod                     0                     0
    rgeomod                     0                     0
       gmbs            6.0444e-14           0.000124433
         gm            1.9419e-13           0.000623385
        gds           4.59906e-11           9.30506e-06
      vdsat              0.040899             0.0798349
        vth              0.687019              0.682008
         id           7.28843e-15           4.45763e-05
        ibd          -1.73123e-25          -3.60076e-12
        ibs           -4.1074e-16          -1.98506e-15
        gbd            2.3124e-12                 2e-12
        gbs           2.59522e-12           2.29227e-12
       isub           1.08961e-33           1.80796e-08
      igidl                     0                     0
      igisl                     0                     0
        igs                     0                     0
        igd                     0                     0
        igb                     0                     0
       igcs                     0                     0
       igcd                     0                     0
        vbs          -0.000158182          -0.000864543
        vgs          -0.000158182              0.699134
        vds          -0.000158182               1.79806
        cgg           4.59011e-15           9.33692e-15
        cgs          -5.93539e-18          -7.43582e-15
        cgd          -6.57482e-22           1.74401e-17
        cbg          -4.59011e-15          -1.12366e-15
        cbd          -1.32568e-22           6.21695e-18
        cbs           5.93503e-18          -2.64085e-15
        cdg          -4.28095e-22          -3.28575e-15
        cdd           5.27462e-22           -9.4214e-18
        cds           4.82201e-23           4.03117e-15
        csg          -4.29221e-22          -4.92752e-15
        csd           2.62588e-22          -1.42356e-17
        css           3.14628e-22            6.0455e-15
        cgb          -4.58417e-15          -1.91854e-15
        cdb          -1.47587e-22             -7.36e-16
        csb          -1.47995e-22          -1.10375e-15
        cbb           4.58418e-15           3.75829e-15
      capbd           1.18202e-14           4.46297e-15
      capbs           2.27758e-15           1.13201e-14
         qg           4.10352e-15           7.28692e-15
         qb          -4.10352e-15          -6.54145e-15
         qd          -1.60604e-23          -2.98223e-16
         qs          -1.61027e-23           -4.4724e-16
       qinv                     0                     0
       qdef                     0                     0
       gcrg            0.00647042             0.0122224
       gtau                     0                     0
    vgsteff           6.52206e-09              0.055404
     vdseff            8.9422e-05             0.0784042
       cgso            3.1928e-15           3.21676e-15
       cgdo           4.26506e-15           3.81205e-15
       cgbo                     0                     0
       weff           5.03164e-06           5.03164e-06
       leff            3.0878e-07            3.0878e-07

 Capacitor: Fixed capacitor
     device          c.xoutcap.c1         c.xlload_l.c0        c.xlload_l.c25
      model                     C                     C                     C
capacitance           2.06582e-13              5.38e-14              5.38e-14
      dtemp                     0                     0                     0
     bv_max                 1e+99                 1e+99                 1e+99
          i                     0                     0                     0
          p                     0                     0                     0

 Capacitor: Fixed capacitor
     device        c.xlload_l.c24 c.xlload_r.xsky130_fd c.xlload_r.xsky130_fd
      model                     C                     C                     C
capacitance             8.337e-15           1.98892e-15           1.98892e-15
      dtemp                     0                     0                     0
     bv_max                 1e+99                 1e+99                 1e+99
          i                     0                     0                     0
          p                     0                     0                     0

 Capacitor: Fixed capacitor
     device          c.xlsrc_c.c1          c.xlsrc_l.c1         c.xlsrc_l.c25
      model                     C                     C                     C
capacitance           7.59422e-14              3.57e-13              3.57e-13
      dtemp                     0                     0                     0
     bv_max                 1e+99                 1e+99                 1e+99
          i                     0                     0                     0
          p                     0                     0                     0

 Capacitor: Fixed capacitor
     device         c.xlsrc_l.c24 c.xlsrc_r.xsky130_fd_ c.xlsrc_r.xsky130_fd_
      model                     C                     C                     C
capacitance             1.031e-13           6.49222e-16           6.49222e-16
      dtemp                     0                     0                     0
     bv_max                 1e+99                 1e+99                 1e+99
          i                     0                     0                     0
          p                     0                     0                     0

 Capacitor: Fixed capacitor
     device         c.xlgate_l.c0        c.xlgate_l.c25        c.xlgate_l.c24
      model                     C                     C                     C
capacitance              5.38e-14              5.38e-14             8.337e-15
      dtemp                     0                     0                     0
     bv_max                 1e+99                 1e+99                 1e+99
          i                     0                     0                     0
          p                     0                     0                    -0

 Capacitor: Fixed capacitor
     device           c.xincap.c1
      model                     C
capacitance           2.06582e-13
      dtemp                     0
     bv_max                 1e+99
          i                     0
          p                    -0

 Inductor: Fixed inductor
     device         l.xlload_l.l1         l.xlload_l.l0          l.xlsrc_l.l2
      model                     L                     L                     L
 inductance             7.605e-10             7.605e-10             2.895e-09
      dtemp                     0                     0                     0
         nt                     0                     0                     0
       flux                     0                     0                     0
          v                     0                     0                     0
          i           4.45692e-05           4.45692e-05           4.45709e-05
          p                     0                     0                     0

 Inductor: Fixed inductor
     device          l.xlsrc_l.l1         l.xlgate_l.l1         l.xlgate_l.l0
      model                     L                     L                     L
 inductance             2.895e-09             7.605e-10             7.605e-10
      dtemp                     0                     0                     0
         nt                     0                     0                     0
       flux                     0                     0                     0
          v                     0                     0                     0
          i           4.45709e-05          -2.86545e-14          -2.86545e-14
          p                     0                    -0                    -0

 Resistor: Simple linear resistor
     device                 rload         r.xoutcap.rs2         r.xoutcap.rs1
      model                     R                     R                     R
 resistance                    50            0.00203518                 0.047
         ac                    50            0.00203518                 0.047
      dtemp                     0                     0                     0
     bv_max                 1e+99                 1e+99                 1e+99
      noisy                     1                     1                     1
          i                     0                     0                     0
          p                     0                     0                     0

 Resistor: Simple linear resistor
     device         r.xlload_l.r9         r.xlload_l.r0        r.xlload_l.r10
      model                     R                     R                     R
 resistance                 1.019                 1.019                 21.56
         ac                 1.019                 1.019                 21.56
      dtemp                     0                     0                     0
     bv_max                 1e+99                 1e+99                 1e+99
      noisy                     1                     1                     1
          i           4.45692e-05           4.45692e-05                     0
          p           2.02415e-09           2.02415e-09                     0

 Resistor: Simple linear resistor
     device        r.xlload_l.r13         r.xlload_l.r1        r.xlload_l.r26
      model                     R                     R                     R
 resistance                 50.11                 21.56                  0.01
         ac                 50.11                 21.56                  0.01
      dtemp                     0                     0                     0
     bv_max                 1e+99                 1e+99                 1e+99
      noisy                     1                     1                     1
          i          -8.86229e-18                     0           4.45692e-05
          p           3.93565e-33                     0           1.98641e-11

 Resistor: Simple linear resistor
     device        r.xlload_l.r31         r.xlsrc_c.rs2         r.xlsrc_c.rs1
      model                     R                     R                     R
 resistance                  0.01            0.00567223                 0.047
         ac                  0.01            0.00567223                 0.047
      dtemp                     0                     0                     0
     bv_max                 1e+99                 1e+99                 1e+99
      noisy                     1                     1                     1
          i           4.45692e-05                     0                     0
          p           1.98641e-11                     0                     0

 Resistor: Simple linear resistor
     device          r.xlsrc_l.r9         r.xlsrc_l.r10         r.xlsrc_l.r13
      model                     R                     R                     R
 resistance                1.7645                  3670                 9.312
         ac                1.7645                  3670                 9.312
      dtemp                     0                     0                     0
     bv_max                 1e+99                 1e+99                 1e+99
      noisy                     1                     1                     1
          i           4.45709e-05                     0                     0
          p           3.50529e-09                     0                     0

 Resistor: Simple linear resistor
     device          r.xlsrc_l.r2          r.xlsrc_l.r3         r.xlsrc_l.r26
      model                     R                     R                     R
 resistance                1.7645                  3670                  0.01
         ac                1.7645                  3670                  0.01
      dtemp                     0                     0                     0
     bv_max                 1e+99                 1e+99                 1e+99
      noisy                     1                     1                     1
          i           4.45709e-05                     0           4.45709e-05
          p           3.50529e-09                     0           1.98656e-11

 Resistor: Simple linear resistor
     device         r.xlsrc_l.r31                 rbias         r.xlgate_l.r9
      model                     R                     R                     R
 resistance                  0.01                 1e+06                 1.019
         ac                  0.01                 1e+06                 1.019
      dtemp                     0                     0                     0
     bv_max                 1e+99                 1e+99                 1e+99
      noisy                     1                     1                     1
          i           4.45709e-05          -2.61418e-14          -2.86544e-14
          p           1.98656e-11           6.83393e-22           8.36677e-28

 Resistor: Simple linear resistor
     device         r.xlgate_l.r0        r.xlgate_l.r10        r.xlgate_l.r13
      model                     R                     R                     R
 resistance                 1.019                 21.56                 50.11
         ac                 1.019                 21.56                 50.11
      dtemp                     0                     0                     0
     bv_max                 1e+99                 1e+99                 1e+99
      noisy                     1                     1                     1
          i          -2.86544e-14                     0          -4.43114e-18
          p           8.36677e-28                     0           9.83912e-34

 Resistor: Simple linear resistor
     device         r.xlgate_l.r1        r.xlgate_l.r26        r.xlgate_l.r31
      model                     R                     R                     R
 resistance                 21.56                  0.01                  0.01
         ac                 21.56                  0.01                  0.01
      dtemp                     0                     0                     0
     bv_max                 1e+99                 1e+99                 1e+99
      noisy                     1                     1                     1
          i                     0          -3.33067e-14          -3.33067e-14
          p                     0           1.10934e-29           1.10934e-29

 Resistor: Simple linear resistor
     device          r.xincap.rs2          r.xincap.rs1               rsource
      model                     R                     R                     R
 resistance            0.00203518                 0.047                    50
         ac            0.00203518                 0.047                    50
      dtemp                     0                     0                     0
     bv_max                 1e+99                 1e+99                 1e+99
      noisy                     1                     1                     1
          i                     0                     0                     0
          p                     0                     0                     0

 Vsource: Independent voltage source
     device                   vin                 vbias                   vdd
         dc                     0                   0.7                   1.8
      acmag                     1                     0                     0
      pulse         -         -         -
        sin         -         -         -
        exp         -         -         -
        pwl         -         -         -
       sffm         -         -         -
         am         -         -         -
    trnoise         -         -         -
   trrandom         -         -         -
    portnum                     0                     0                     0
         z0                     0                     0                     0
        pwr                     0                     0                     0
       freq                     0                     0                     0
      phase                     0                     0                     0
          i                     0          -2.61418e-14          -4.45944e-05
          p                     0          -1.82992e-14          -8.02699e-05

Doing analysis at TEMP = 27.000000 and TNOM = 27.000000

Using SPARSE 1.3 as Direct Linear Solver
Warning: Source conductance reset to 1.0e3 mho.

No. of Data Rows : 401
gain_db             =  -4.49590e+01
f_3db_low           =  3.54014e+09
 meas ac f_3db_high when gain_db_vector=-4.795898e+01 fall=1 failed!

Doing analysis at TEMP = 27.000000 and TNOM = 27.000000

Using SPARSE 1.3 as Direct Linear Solver
Warning: Source conductance reset to 1.0e3 mho.

No. of Data Rows : 91

No. of Data Rows : 1
vin_re              =  9.82611e-01
vin_im              =  -1.21115e-01
iin_re              =  -3.47787e-04
iin_im              =  -2.42230e-03
vout_re             =  3.00767e-03
vout_im             =  -4.72029e-03
vin_mag             =  9.90047e-01
iin_mag             =  2.44714e-03
vout_mag            =  5.59762e-03
zin_re              =  8.07647e+00
zin_im              =  -4.04506e+02
inoise_total = 5.190954e-05
onoise_total = 3.153237e-09
Note: Simulation executed from .control section 

Error: measure  f_3db_high  when(WHEN) : out of interval
[simulate_circuits] could not set process priority to high (nice -10): [Errno 13] Permission denied
