
Note: No compatibility mode selected!


Circuit: * rf lna - common source with inductive degeneration

Doing analysis at TEMP = 27.000000 and TNOM = 27.000000

Using SPARSE 1.3 as Direct Linear Solver
Warning: Source conductance reset to 1.0e3 mho.
Warning: Drain conductance reset to 1.0e3 mho.
 Reference value :  0.00000e+00
No. of Data Rows : 1
idd = 0.000333983
pdc = 0.000601169
 ASRC: Arbitrary Source 
     device b.xlload_r.brhrpoly_2      b.xlload_r.brend b.xlsrc_r.xsky130_fd_
      dtemp                     0                     0                     0
          i           1.91169e-06           1.91169e-06           4.73805e-08
          v            0.00108546           0.000288652           2.78497e-05
   pos_node                    30                     1                    18
   neg_node                    29                    30                    17

 ASRC: Arbitrary Source 
     device b.xlsrc_r.xsky130_fd_
      dtemp                     0
          i           4.73805e-08
          v            0.00135373
   pos_node                    17
   neg_node                     0

 BSIM4v5: Berkeley Short Channel IGFET Model-4
     device m.xn1.msky130_fd_pr__
      model xn1:sky130_fd_pr__rf_
          l               2.5e-07
          w              5.05e-06
          m                     1
         nf                     1
         sa                     0
         sb                     0
         sd                     0
        sca                     0
        scb                     0
        scc                     0
         sc                     0
        min                     0
         ad                     0
         as                     0
         pd                     0
         ps                     0
        nrd                     0
        nrs                     0
        off                     0
       rbdb                100000
       rbsb                100000
       rbpb                   200
       rbps                 0.001
       rbpd                 0.001
     delvto                     0
      mulu0                     1
        xgw              1.35e-06
      ngcon                     2
   trnqsmod                     0
   acnqsmod                     0
   rbodymod                     1
   rgatemod                     3
     geomod                     0
    rgeomod                     0
       gmbs           0.000244767
         gm            0.00162819
        gds           3.72358e-05
      vdsat              0.212764
        vth               0.57319
         id           0.000333923
        ibd          -1.80196e-12
        ibs          -1.00405e-14
        gbd                 1e-12
        gbs            1.2359e-12
       isub           6.00669e-08
      igidl                     0
      igisl                     0
        igs                     0
        igd                     0
        igb                     0
       igcs                     0
       igcd                     0
        vbs           -0.00792958
        vgs              0.892058
        vds               1.78403
        cgg           5.38244e-15
        cgs          -4.52379e-15
        cgd           2.94443e-17
        cbg          -4.01959e-16
        cbd           9.13228e-18
        cbs          -1.38118e-15
        cdg          -1.99266e-15
        cdd          -1.52718e-17
        cds           2.36238e-15
        csg          -2.98782e-15
        csd          -2.33047e-17
        css           3.54259e-15
        cgb          -8.88089e-16
        cdb          -3.54452e-16
        csb          -5.31464e-16
        cbb           1.77401e-15
      capbd           1.03116e-15
      capbs            1.2648e-15
         qg           5.05174e-15
         qb          -3.22595e-15
         qd          -7.30439e-16
         qs          -1.09535e-15
       qinv                     0
       qdef                     0
       gcrg             0.0196221
       gtau                     0
    vgsteff               0.31912
     vdseff              0.208454
       cgso           1.82394e-15
       cgdo           1.85198e-15
       cgbo                     0
       weff           5.03164e-06
       leff              2.58e-07

 Capacitor: Fixed capacitor
     device          c.xoutcap.c1         c.xlload_c.c1        c.xlload_l.c25
      model                     C                     C                     C
capacitance           2.06582e-13           9.30225e-15             2.237e-13
      dtemp                     0                     0                     0
     bv_max                 1e+99                 1e+99                 1e+99
          i                     0                     0                     0
          p                     0                     0                     0

 Capacitor: Fixed capacitor
     device        c.xlload_l.c24         c.xlload_l.c2         c.xlload_r.c2
      model                     C                     C                     C
capacitance              2.05e-13             2.237e-13           2.14745e-15
      dtemp                     0                     0                     0
     bv_max                 1e+99                 1e+99                 1e+99
          i                     0                     0                     0
          p                     0                     0                     0

 Capacitor: Fixed capacitor
     device         c.xlload_r.c1          c.xlsrc_c.c1         c.xlsrc_l.c25
      model                     C                     C                     C
capacitance           2.14745e-15           2.06582e-13             2.237e-13
      dtemp                     0                     0                     0
     bv_max                 1e+99                 1e+99                 1e+99
          i                     0                     0                     0
          p                     0                     0                     0

 Capacitor: Fixed capacitor
     device         c.xlsrc_l.c24          c.xlsrc_l.c2 c.xlsrc_r.xsky130_fd_
      model                     C                     C                     C
capacitance              2.05e-13             2.237e-13           6.49222e-16
      dtemp                     0                     0                     0
     bv_max                 1e+99                 1e+99                 1e+99
          i                     0                     0                     0
          p                     0                     0                     0

 Capacitor: Fixed capacitor
     device c.xlsrc_r.xsky130_fd_         c.xlgate_l.c0        c.xlgate_l.c25
      model                     C                     C                     C
capacitance           6.49222e-16              5.38e-14              5.38e-14
      dtemp                     0                     0                     0
     bv_max                 1e+99                 1e+99                 1e+99
          i                     0                     0                     0
          p                     0                     0                     0

 Capacitor: Fixed capacitor
     device        c.xlgate_l.c24           c.xincap.c1
      model                     C                     C
capacitance             8.337e-15           2.06582e-13
      dtemp                     0                     0
     bv_max                 1e+99                 1e+99
          i                     0                     0
          p                    -0                    -0

 Inductor: Fixed inductor
     device         l.xlload_l.l3         l.xlload_l.l1          l.xlsrc_l.l3
      model                     L                     L                     L
 inductance              4.96e-09              4.96e-09              4.96e-09
      dtemp                     0                     0                     0
         nt                     0                     0                     0
       flux                     0                     0                     0
          v                     0                     0                     0
          i           0.000332071           0.000332071           0.000333875
          p                     0                     0                     0

 Inductor: Fixed inductor
     device          l.xlsrc_l.l1         l.xlgate_l.l1         l.xlgate_l.l0
      model                     L                     L                     L
 inductance              4.96e-09             7.605e-10             7.605e-10
      dtemp                     0                     0                     0
         nt                     0                     0                     0
       flux                     0                     0                     0
          v                     0                     0                     0
          i           0.000333875          -3.69166e-14          -3.69166e-14
          p                     0                    -0                    -0

 Resistor: Simple linear resistor
     device                 rload         r.xoutcap.rs2         r.xoutcap.rs1
      model                     R                     R                     R
 resistance                    50            0.00203518                 0.047
         ac                    50            0.00203518                 0.047
      dtemp                     0                     0                     0
     bv_max                 1e+99                 1e+99                 1e+99
      noisy                     1                     1                     1
          i                     0                     0                     0
          p                     0                     0                     0

 Resistor: Simple linear resistor
     device        r.xlload_c.rs2        r.xlload_c.rs1         r.xlload_l.r9
      model                     R                     R                     R
 resistance             0.0519153                 0.047                 2.059
         ac             0.0519153                 0.047                 2.059
      dtemp                     0                     0                     0
     bv_max                 1e+99                 1e+99                 1e+99
      noisy                     1                     1                     1
          i           8.55412e-15                     0           0.000332071
          p           3.79879e-30                     0           2.27049e-07

 Resistor: Simple linear resistor
     device        r.xlload_l.r10        r.xlload_l.r13         r.xlload_l.r4
      model                     R                     R                     R
 resistance                  5358                 9.064                 2.059
         ac                  5358                 9.064                 2.059
      dtemp                     0                     0                     0
     bv_max                 1e+99                 1e+99                 1e+99
      noisy                     1                     1                     1
          i                     0           2.44974e-17           0.000332071
          p                     0           5.43952e-33           2.27049e-07

 Resistor: Simple linear resistor
     device         r.xlload_l.r5        r.xlload_l.r26        r.xlload_l.r31
      model                     R                     R                     R
 resistance                  5358                  0.01                  0.01
         ac                  5358                  0.01                  0.01
      dtemp                     0                     0                     0
     bv_max                 1e+99                 1e+99                 1e+99
      noisy                     1                     1                     1
          i                     0           0.000332071           0.000332071
          p                     0           1.10271e-09           1.10271e-09

 Resistor: Simple linear resistor
     device         r.xlsrc_c.rs2         r.xlsrc_c.rs1          r.xlsrc_l.r9
      model                     R                     R                     R
 resistance            0.00203518                 0.047                 2.059
         ac            0.00203518                 0.047                 2.059
      dtemp                     0                     0                     0
     bv_max                 1e+99                 1e+99                 1e+99
      noisy                     1                     1                     1
          i                     0                     0           0.000333875
          p                     0                     0           2.29523e-07

 Resistor: Simple linear resistor
     device         r.xlsrc_l.r10         r.xlsrc_l.r13          r.xlsrc_l.r4
      model                     R                     R                     R
 resistance                  5358                 9.064                 2.059
         ac                  5358                 9.064                 2.059
      dtemp                     0                     0                     0
     bv_max                 1e+99                 1e+99                 1e+99
      noisy                     1                     1                     1
          i                     0                     0           0.000333875
          p                     0                     0           2.29523e-07

 Resistor: Simple linear resistor
     device          r.xlsrc_l.r5         r.xlsrc_l.r26         r.xlsrc_l.r31
      model                     R                     R                     R
 resistance                  5358                  0.01                  0.01
         ac                  5358                  0.01                  0.01
      dtemp                     0                     0                     0
     bv_max                 1e+99                 1e+99                 1e+99
      noisy                     1                     1                     1
          i                     0           0.000333875           0.000333875
          p                     0           1.11473e-09           1.11473e-09

 Resistor: Simple linear resistor
     device                 rbias         r.xlgate_l.r9         r.xlgate_l.r0
      model                     R                     R                     R
 resistance                 1e+06                 1.019                 1.019
         ac                 1e+06                 1.019                 1.019
      dtemp                     0                     0                     0
     bv_max                 1e+99                 1e+99                 1e+99
      noisy                     1                     1                     1
          i          -4.45033e-14          -3.69348e-14          -3.69348e-14
          p           1.98054e-21            1.3901e-27            1.3901e-27

 Resistor: Simple linear resistor
     device        r.xlgate_l.r10        r.xlgate_l.r13         r.xlgate_l.r1
      model                     R                     R                     R
 resistance                 21.56                 50.11                 21.56
         ac                 21.56                 50.11                 21.56
      dtemp                     0                     0                     0
     bv_max                 1e+99                 1e+99                 1e+99
      noisy                     1                     1                     1
          i                     0                     0                     0
          p                     0                     0                     0

 Resistor: Simple linear resistor
     device        r.xlgate_l.r26        r.xlgate_l.r31          r.xincap.rs2
      model                     R                     R                     R
 resistance                  0.01                  0.01            0.00203518
         ac                  0.01                  0.01            0.00203518
      dtemp                     0                     0                     0
     bv_max                 1e+99                 1e+99                 1e+99
      noisy                     1                     1                     1
          i          -4.44089e-14          -4.44089e-14                     0
          p           1.97215e-29           1.97215e-29                     0

 Resistor: Simple linear resistor
     device          r.xincap.rs1               rsource
      model                     R                     R
 resistance                 0.047                    50
         ac                 0.047                    50
      dtemp                     0                     0
     bv_max                 1e+99                 1e+99
      noisy                     1                     1
          i                     0                     0
          p                     0                     0

 Vsource: Independent voltage source
     device                   vin                 vbias                   vdd
         dc                     0                   0.9                   1.8
      acmag                     1                     0                     0
      pulse         -         -         -
        sin         -         -         -
        exp         -         -         -
        pwl         -         -         -
       sffm         -         -         -
         am         -         -         -
    trnoise         -         -         -
   trrandom         -         -         -
    portnum                     0                     0                     0
         z0                     0                     0                     0
        pwr                     0                     0                     0
       freq                     0                     0                     0
      phase                     0                     0                     0
          i                     0          -4.45033e-14          -0.000333983
          p                     0          -4.00529e-14          -0.000601169

Doing analysis at TEMP = 27.000000 and TNOM = 27.000000

Using SPARSE 1.3 as Direct Linear Solver
Warning: Source conductance reset to 1.0e3 mho.
Warning: Drain conductance reset to 1.0e3 mho.

No. of Data Rows : 401
gain_db             =  -3.01519e+01
f_3db_low           =  1.79426e+09
f_3db_high          =  2.37156e+09
Doing analysis at TEMP = 27.000000 and TNOM = 27.000000

Using SPARSE 1.3 as Direct Linear Solver
Warning: Source conductance reset to 1.0e3 mho.
Warning: Drain conductance reset to 1.0e3 mho.

No. of Data Rows : 25

No. of Data Rows : 1
vin_re              =  9.82839e-01
vin_im              =  -1.18586e-01
iin_re              =  -3.43229e-04
iin_im              =  -2.37171e-03
vout_re             =  -3.07617e-02
vout_im             =  1.92182e-04
vin_mag             =  9.89967e-01
iin_mag             =  2.39642e-03
vout_mag            =  3.07627e-02
zin_re              =  9.76497e+00
zin_im              =  -4.12997e+02
inoise_total = 5.327044e-07
onoise_total = 4.111362e-10
Note: Simulation executed from .control section 
[simulate_circuits] could not set process priority to high (nice -10): [Errno 13] Permission denied
