
Note: No compatibility mode selected!


Circuit: * rf lna - common source with inductive degeneration

Doing analysis at TEMP = 27.000000 and TNOM = 27.000000

Using SPARSE 1.3 as Direct Linear Solver
 Reference value :  0.00000e+00
No. of Data Rows : 1
idd = 0.00117917
pdc = 0.0021225
Doing analysis at TEMP = 27.000000 and TNOM = 27.000000

Using SPARSE 1.3 as Direct Linear Solver

No. of Data Rows : 401
gain_db             =  8.736724e-01
f_3db_low           =  1.633171e+09
f_3db_high          =  8.290968e+09
Doing analysis at TEMP = 27.000000 and TNOM = 27.000000

Using SPARSE 1.3 as Direct Linear Solver

No. of Data Rows : 142

No. of Data Rows : 1
vin_re              =  9.749785e-01
vin_im              =  -7.466615e-02
iin_re              =  -5.004301e-04
iin_im              =  -1.493323e-03
vout_re             =  -9.800825e-01
vout_im             =  -4.567473e-01
out_noise = 2.90946E-18
in_noise = 2.48847E-18
inoise_total = 1.458668e-08
onoise_total = 1.262476e-08
Note: Simulation executed from .control section 
