
Note: No compatibility mode selected!


Circuit: * rf lna - common source with inductive degeneration

Doing analysis at TEMP = 27.000000 and TNOM = 27.000000

Using SPARSE 1.3 as Direct Linear Solver
Warning: Source conductance reset to 1.0e3 mho.
 Reference value :  0.00000e+00
No. of Data Rows : 1
idd = 0.000579095
pdc = 0.00104237
 ASRC: Arbitrary Source 
     device b.xlload_r.xsky130_fd b.xlload_r.xsky130_fd b.xlsrc_r.brhrpoly_0p
      dtemp                     0                     0                     0
          i           2.80455e-07           2.80455e-07           7.08825e-07
          v            6.5174e-05            0.00198904            0.00174144
   pos_node                     1                    30                    18
   neg_node                    30                    29                     0

 ASRC: Arbitrary Source 
     device       b.xlsrc_r.brend
      dtemp                     0
          i           7.08825e-07
          v           0.000310906
   pos_node                    17
   neg_node                    18

 BSIM4v5: Berkeley Short Channel IGFET Model-4
     device m.xn1.xsky130_fd_pr__ m.xn1.xsky130_fd_pr__
      model xn1.xsky130_fd_pr__rf xn1.xsky130_fd_pr__rf
          l               2.5e-07               2.5e-07
          w              5.05e-06              5.05e-06
          m                     2                     2
         nf                     1                     1
         sa                     0                     0
         sb                     0                     0
         sd                     0                     0
        sca                     0                     0
        scb                     0                     0
        scc                     0                     0
         sc                     0                     0
        min                     0                     0
         ad             1.515e-12              7.07e-13
         as                     0             1.414e-12
         pd              1.07e-05              5.33e-06
         ps                     0             1.066e-05
        nrd                 12.13                 24.27
        nrs                     0                 12.13
        off                     0                     0
       rbdb                100000                100000
       rbsb                100000                100000
       rbpb                   200                   200
       rbps                 0.001                 0.001
       rbpd                 0.001                 0.001
     delvto                     0                     0
      mulu0                     1                     1
        xgw               1.3e-06               1.3e-06
      ngcon                     2                     2
   trnqsmod                     0                     0
   acnqsmod                     0                     0
   rbodymod                     1                     1
   rgatemod                     3                     3
     geomod                     0                     0
    rgeomod                     0                     0
       gmbs           7.66907e-13            0.00057346
         gm           2.46398e-12            0.00297481
        gds           4.39692e-11           4.91174e-05
      vdsat              0.040899              0.203234
        vth              0.687014              0.684366
         id           9.24793e-14           0.000578998
        ibd           -2.1777e-24           -3.5732e-12
        ibs          -5.29518e-15          -2.53461e-14
        gbd            2.3124e-12                 2e-12
        gbs           2.56245e-12            2.2143e-12
       isub           1.82047e-31           9.75689e-08
      igidl                     0                     0
      igisl                     0                     0
        igs                     0                     0
        igd                     0                     0
        igb                     0                     0
       igcs                     0                     0
       igcd                     0                     0
        vbs           -0.00205235            -0.0112414
        vgs           -0.00205235              0.988749
        vds           -0.00205235                1.7739
        cgg           4.59011e-15           1.06604e-14
        cgs          -5.93547e-18          -9.06871e-15
        cgd          -5.32299e-22           2.08414e-17
        cbg          -4.59011e-15          -8.69922e-16
        cbd          -1.07265e-22           6.72174e-18
        cbs           5.93501e-18          -2.89967e-15
        cdg          -4.04032e-22          -3.91707e-15
        cdd           4.30317e-22          -1.07248e-17
        cds           1.13007e-22           4.78814e-15
        csg          -4.17378e-22          -5.87336e-15
        csd           2.09247e-22          -1.68384e-17
        css           3.52044e-22           7.18024e-15
        cgb          -4.58417e-15          -1.61248e-15
        cdb          -1.39293e-22          -8.60351e-16
        csb          -1.43913e-22          -1.29004e-15
        cbb           4.58418e-15           3.76287e-15
      capbd           1.18202e-14            4.4683e-15
      capbs           2.27686e-15           1.12937e-14
         qg           4.10352e-15           1.02933e-14
         qb          -4.10352e-15          -6.84123e-15
         qd          -1.51577e-23          -1.38107e-15
         qs          -1.56584e-23          -2.07102e-15
       qinv                     0                     0
       qdef                     0                     0
       gcrg             0.0064704             0.0358618
       gtau                     0                     0
    vgsteff           6.52301e-09              0.304979
     vdseff            0.00114695              0.199263
       cgso           3.19252e-15           3.21708e-15
       cgdo           4.26506e-15            3.8651e-15
       cgbo                     0                     0
       weff           5.03164e-06           5.03164e-06
       leff            3.0878e-07            3.0878e-07

 Capacitor: Fixed capacitor
     device          c.xoutcap.c1         c.xlload_c.c1         c.xlload_l.c1
      model                     C                     C                     C
capacitance           2.06582e-13           9.30225e-15              3.57e-13
      dtemp                     0                     0                     0
     bv_max                 1e+99                 1e+99                 1e+99
          i                     0                     0                     0
          p                     0                     0                     0

 Capacitor: Fixed capacitor
     device        c.xlload_l.c25        c.xlload_l.c24 c.xlload_r.xsky130_fd
      model                     C                     C                     C
capacitance              3.57e-13             1.031e-13           1.21725e-15
      dtemp                     0                     0                     0
     bv_max                 1e+99                 1e+99                 1e+99
          i                     0                     0                     0
          p                     0                     0                     0

 Capacitor: Fixed capacitor
     device c.xlload_r.xsky130_fd          c.xlsrc_c.c1          c.xlsrc_l.c1
      model                     C                     C                     C
capacitance           1.21725e-15           9.30225e-15              3.57e-13
      dtemp                     0                     0                     0
     bv_max                 1e+99                 1e+99                 1e+99
          i                     0                     0                     0
          p                     0                     0                     0

 Capacitor: Fixed capacitor
     device         c.xlsrc_l.c25         c.xlsrc_l.c24          c.xlsrc_r.c2
      model                     C                     C                     C
capacitance              3.57e-13             1.031e-13           8.65896e-16
      dtemp                     0                     0                     0
     bv_max                 1e+99                 1e+99                 1e+99
          i                     0                     0                     0
          p                     0                     0                     0

 Capacitor: Fixed capacitor
     device          c.xlsrc_r.c1         c.xlgate_l.c1        c.xlgate_l.c25
      model                     C                     C                     C
capacitance           8.65896e-16              3.57e-13              3.57e-13
      dtemp                     0                     0                     0
     bv_max                 1e+99                 1e+99                 1e+99
          i                     0                     0                     0
          p                     0                     0                     0

 Capacitor: Fixed capacitor
     device        c.xlgate_l.c24           c.xincap.c1
      model                     C                     C
capacitance             1.031e-13           2.06582e-13
      dtemp                     0                     0
     bv_max                 1e+99                 1e+99
          i                     0                     0
          p                    -0                    -0

 Inductor: Fixed inductor
     device         l.xlload_l.l2         l.xlload_l.l1          l.xlsrc_l.l2
      model                     L                     L                     L
 inductance             2.895e-09             2.895e-09             2.895e-09
      dtemp                     0                     0                     0
         nt                     0                     0                     0
       flux                     0                     0                     0
          v                     0                     0                     0
          i           0.000578815           0.000578815           0.000578289
          p                     0                     0                     0

 Inductor: Fixed inductor
     device          l.xlsrc_l.l1         l.xlgate_l.l2         l.xlgate_l.l1
      model                     L                     L                     L
 inductance             2.895e-09             2.895e-09             2.895e-09
      dtemp                     0                     0                     0
         nt                     0                     0                     0
       flux                     0                     0                     0
          v                     0                     0                     0
          i           0.000578289          -4.04862e-14          -4.04862e-14
          p                     0                    -0                    -0

 Resistor: Simple linear resistor
     device                 rload         r.xoutcap.rs2         r.xoutcap.rs1
      model                     R                     R                     R
 resistance                    50            0.00203518                 0.047
         ac                    50            0.00203518                 0.047
      dtemp                     0                     0                     0
     bv_max                 1e+99                 1e+99                 1e+99
      noisy                     1                     1                     1
          i                     0                     0                     0
          p                     0                     0                     0

 Resistor: Simple linear resistor
     device        r.xlload_c.rs2        r.xlload_c.rs1         r.xlload_l.r9
      model                     R                     R                     R
 resistance             0.0519153                 0.047                1.7645
         ac             0.0519153                 0.047                1.7645
      dtemp                     0                     0                     0
     bv_max                 1e+99                 1e+99                 1e+99
      noisy                     1                     1                     1
          i           8.55412e-15                     0           0.000578815
          p           3.79879e-30                     0           5.91155e-07

 Resistor: Simple linear resistor
     device        r.xlload_l.r10        r.xlload_l.r13         r.xlload_l.r2
      model                     R                     R                     R
 resistance                  3670                 9.312                1.7645
         ac                  3670                 9.312                1.7645
      dtemp                     0                     0                     0
     bv_max                 1e+99                 1e+99                 1e+99
      noisy                     1                     1                     1
          i                     0            2.3845e-17           0.000578815
          p                     0           5.29465e-33           5.91155e-07

 Resistor: Simple linear resistor
     device         r.xlload_l.r3        r.xlload_l.r26        r.xlload_l.r31
      model                     R                     R                     R
 resistance                  3670                  0.01                  0.01
         ac                  3670                  0.01                  0.01
      dtemp                     0                     0                     0
     bv_max                 1e+99                 1e+99                 1e+99
      noisy                     1                     1                     1
          i                     0           0.000578815           0.000578815
          p                     0           3.35027e-09           3.35027e-09

 Resistor: Simple linear resistor
     device         r.xlsrc_c.rs2         r.xlsrc_c.rs1          r.xlsrc_l.r9
      model                     R                     R                     R
 resistance             0.0519153                 0.047                1.7645
         ac             0.0519153                 0.047                1.7645
      dtemp                     0                     0                     0
     bv_max                 1e+99                 1e+99                 1e+99
      noisy                     1                     1                     1
          i                     0                     0           0.000578289
          p                     0                     0           5.90081e-07

 Resistor: Simple linear resistor
     device         r.xlsrc_l.r10         r.xlsrc_l.r13          r.xlsrc_l.r2
      model                     R                     R                     R
 resistance                  3670                 9.312                1.7645
         ac                  3670                 9.312                1.7645
      dtemp                     0                     0                     0
     bv_max                 1e+99                 1e+99                 1e+99
      noisy                     1                     1                     1
          i                     0                     0           0.000578289
          p                     0                     0           5.90081e-07

 Resistor: Simple linear resistor
     device          r.xlsrc_l.r3         r.xlsrc_l.r26         r.xlsrc_l.r31
      model                     R                     R                     R
 resistance                  3670                  0.01                  0.01
         ac                  3670                  0.01                  0.01
      dtemp                     0                     0                     0
     bv_max                 1e+99                 1e+99                 1e+99
      noisy                     1                     1                     1
          i                     0           0.000578289           0.000578289
          p                     0           3.34418e-09           3.34418e-09

 Resistor: Simple linear resistor
     device                 rbias         r.xlgate_l.r9        r.xlgate_l.r10
      model                     R                     R                     R
 resistance                 1e+06                1.7645                  3670
         ac                 1e+06                1.7645                  3670
      dtemp                     0                     0                     0
     bv_max                 1e+99                 1e+99                 1e+99
      noisy                     1                     1                     1
          i          -3.73432e-14          -4.04575e-14                     0
          p           1.39452e-21           2.88816e-27                     0

 Resistor: Simple linear resistor
     device        r.xlgate_l.r13         r.xlgate_l.r2         r.xlgate_l.r3
      model                     R                     R                     R
 resistance                 9.312                1.7645                  3670
         ac                 9.312                1.7645                  3670
      dtemp                     0                     0                     0
     bv_max                 1e+99                 1e+99                 1e+99
      noisy                     1                     1                     1
          i                     0          -4.05205e-14                     0
          p                     0           2.89715e-27                     0

 Resistor: Simple linear resistor
     device        r.xlgate_l.r26        r.xlgate_l.r31          r.xincap.rs2
      model                     R                     R                     R
 resistance                  0.01                  0.01            0.00203518
         ac                  0.01                  0.01            0.00203518
      dtemp                     0                     0                     0
     bv_max                 1e+99                 1e+99                 1e+99
      noisy                     1                     1                     1
          i          -4.44089e-14          -4.44089e-14                     0
          p           1.97215e-29           1.97215e-29                     0

 Resistor: Simple linear resistor
     device          r.xincap.rs1               rsource
      model                     R                     R
 resistance                 0.047                    50
         ac                 0.047                    50
      dtemp                     0                     0
     bv_max                 1e+99                 1e+99
      noisy                     1                     1
          i                     0                     0
          p                     0                     0

 Vsource: Independent voltage source
     device                   vin                 vbias                   vdd
         dc                     0                     1                   1.8
      acmag                     1                     0                     0
      pulse         -         -         -
        sin         -         -         -
        exp         -         -         -
        pwl         -         -         -
       sffm         -         -         -
         am         -         -         -
    trnoise         -         -         -
   trrandom         -         -         -
    portnum                     0                     0                     0
         z0                     0                     0                     0
        pwr                     0                     0                     0
       freq                     0                     0                     0
      phase                     0                     0                     0
          i                     0          -3.73432e-14          -0.000579095
          p                     0          -3.73432e-14           -0.00104237

Doing analysis at TEMP = 27.000000 and TNOM = 27.000000

Using SPARSE 1.3 as Direct Linear Solver
Warning: Source conductance reset to 1.0e3 mho.

No. of Data Rows : 401
gain_db             =  -2.23984e+01
f_3db_low           =  2.37931e+09
f_3db_high          =  5.31814e+09
Doing analysis at TEMP = 27.000000 and TNOM = 27.000000

Using SPARSE 1.3 as Direct Linear Solver
Warning: Source conductance reset to 1.0e3 mho.

No. of Data Rows : 70

No. of Data Rows : 1
vin_re              =  9.65616e-01
vin_im              =  -1.52240e-02
iin_re              =  -6.87676e-04
iin_im              =  -3.04481e-04
vout_re             =  -5.08634e-02
vout_im             =  5.27707e-02
vin_mag             =  9.65736e-01
iin_mag             =  7.52069e-04
vout_mag            =  7.32953e-02
zin_re              =  1.16582e+03
zin_im              =  -5.38324e+02
inoise_total = 2.402825e-07
onoise_total = 2.664321e-09
Note: Simulation executed from .control section 
[simulate_circuits] could not set process priority to high (nice -10): [Errno 13] Permission denied
