
Note: No compatibility mode selected!


Circuit: * rf lna - common source with inductive degeneration

Doing analysis at TEMP = 27.000000 and TNOM = 27.000000

Using SPARSE 1.3 as Direct Linear Solver
Warning: Source conductance reset to 1.0e3 mho.
 Reference value :  0.00000e+00
No. of Data Rows : 1
idd = 0.000466877
pdc = 0.000840378
 ASRC: Arbitrary Source 
     device b.xlload_r.xsky130_fd b.xlload_r.xsky130_fd b.xlsrc_r.xsky130_fd_
      dtemp                     0                     0                     0
          i           5.68173e-08           5.68173e-08           5.68018e-08
          v           3.33964e-05            0.00162335           3.33873e-05
   pos_node                     1                    30                    18
   neg_node                    30                    29                    17

 ASRC: Arbitrary Source 
     device b.xlsrc_r.xsky130_fd_
      dtemp                     0
          i           5.68018e-08
          v            0.00162291
   pos_node                    17
   neg_node                     0

 BSIM4v5: Berkeley Short Channel IGFET Model-4
     device m.xn1.xsky130_fd_pr__ m.xn1.xsky130_fd_pr__
      model xn1.xsky130_fd_pr__rf xn1.xsky130_fd_pr__rf
          l               1.8e-07               1.8e-07
          w              5.05e-06              5.05e-06
          m                     2                     2
         nf                     1                     1
         sa                     0                     0
         sb                     0                     0
         sd                     0                     0
        sca                     0                     0
        scb                     0                     0
        scc                     0                     0
         sc                     0                     0
        min                     0                     0
         ad             1.515e-12              7.07e-13
         as                     0             1.414e-12
         pd              1.07e-05              5.33e-06
         ps                     0             1.066e-05
        nrd                 12.13                 24.27
        nrs                     0                 12.13
        off                     0                     0
       rbdb                100000                100000
       rbsb                100000                100000
       rbpb                   200                   200
       rbps                 0.001                 0.001
       rbpd                 0.001                 0.001
     delvto                     0                     0
      mulu0                     1                     1
        xgw               1.3e-06               1.3e-06
      ngcon                     2                     2
   trnqsmod                     0                     0
   acnqsmod                     0                     0
   rbodymod                     1                     1
   rgatemod                     3                     3
     geomod                     0                     0
    rgeomod                     0                     0
       gmbs           8.46475e-14           0.000481666
         gm           3.15588e-13            0.00323915
        gds           6.42046e-12           0.000111422
      vdsat             0.0414147              0.145133
        vth              0.717859               0.70206
         id           1.08292e-14            0.00046675
        ibd           5.87738e-25          -3.57895e-12
        ibs            -4.279e-15          -2.04981e-14
        gbd            2.3124e-12                 2e-12
        gbs           2.56915e-12           2.22875e-12
       isub           1.85711e-32           1.26912e-07
      igidl                     0                     0
      igisl                     0                     0
        igs                     0                     0
        igd                     0                     0
        igb                     0                     0
       igcs                     0                     0
       igcd                     0                     0
        vbs           -0.00165629           -0.00905899
        vgs           -0.00165629              0.890928
        vds           -0.00165629               1.77896
        cgg           3.01355e-15           6.65929e-15
        cgs          -3.93498e-18          -5.46969e-15
        cgd          -2.84714e-23           4.47892e-17
        cbg          -3.01355e-15          -4.75002e-16
        cbd          -4.64268e-24           1.59306e-17
        cbs           3.93496e-18          -1.95356e-15
        cdg          -2.23866e-23          -2.47418e-15
        cdd           2.23034e-23          -2.41811e-17
        cds           6.65054e-24           2.96974e-15
        csg          -2.29875e-23          -3.71011e-15
        csd           1.08107e-23          -3.65388e-17
        css           1.89251e-23           4.45351e-15
        cgb          -3.00961e-15          -1.23438e-15
        cdb          -6.56738e-24          -4.71386e-16
        csb          -6.74827e-24          -7.06866e-16
        cbb           3.00961e-15           2.41263e-15
      capbd           1.26447e-14           5.16737e-15
      capbs           3.10127e-15           1.21225e-14
         qg           2.54867e-15           5.77634e-15
         qb          -2.54867e-15          -4.28026e-15
         qd           -7.6805e-25          -5.98523e-16
         qs          -7.88665e-25          -8.97557e-16
       qinv                     0                     0
       qdef                     0                     0
       gcrg            0.00958305             0.0426918
       gtau                     0                     0
    vgsteff           6.31877e-10              0.192002
     vdseff           0.000933036              0.142403
       cgso           3.47237e-15           3.50902e-15
       cgdo           3.80261e-15           3.47581e-15
       cgbo                     0                     0
       weff           5.03164e-06           5.03164e-06
       leff            2.3878e-07            2.3878e-07

 Capacitor: Fixed capacitor
     device          c.xoutcap.c1         c.xlload_l.c1        c.xlload_l.c25
      model                     C                     C                     C
capacitance           2.06582e-13              3.57e-13              3.57e-13
      dtemp                     0                     0                     0
     bv_max                 1e+99                 1e+99                 1e+99
          i                     0                     0                     0
          p                     0                     0                     0

 Capacitor: Fixed capacitor
     device        c.xlload_l.c24 c.xlload_r.xsky130_fd c.xlload_r.xsky130_fd
      model                     C                     C                     C
capacitance             1.031e-13           6.49222e-16           6.49222e-16
      dtemp                     0                     0                     0
     bv_max                 1e+99                 1e+99                 1e+99
          i                     0                     0                     0
          p                     0                     0                     0

 Capacitor: Fixed capacitor
     device          c.xlsrc_c.c1          c.xlsrc_l.c1         c.xlsrc_l.c25
      model                     C                     C                     C
capacitance           7.59422e-14              3.57e-13              3.57e-13
      dtemp                     0                     0                     0
     bv_max                 1e+99                 1e+99                 1e+99
          i                     0                     0                     0
          p                     0                     0                     0

 Capacitor: Fixed capacitor
     device         c.xlsrc_l.c24 c.xlsrc_r.xsky130_fd_ c.xlsrc_r.xsky130_fd_
      model                     C                     C                     C
capacitance             1.031e-13           6.49222e-16           6.49222e-16
      dtemp                     0                     0                     0
     bv_max                 1e+99                 1e+99                 1e+99
          i                     0                     0                     0
          p                     0                     0                     0

 Capacitor: Fixed capacitor
     device         c.xlgate_l.c0        c.xlgate_l.c25        c.xlgate_l.c24
      model                     C                     C                     C
capacitance              5.38e-14              5.38e-14             8.337e-15
      dtemp                     0                     0                     0
     bv_max                 1e+99                 1e+99                 1e+99
          i                     0                     0                     0
          p                     0                     0                    -0

 Capacitor: Fixed capacitor
     device           c.xincap.c1
      model                     C
capacitance           2.06582e-13
      dtemp                     0
     bv_max                 1e+99
          i                     0
          p                    -0

 Inductor: Fixed inductor
     device         l.xlload_l.l2         l.xlload_l.l1          l.xlsrc_l.l2
      model                     L                     L                     L
 inductance             2.895e-09             2.895e-09             2.895e-09
      dtemp                     0                     0                     0
         nt                     0                     0                     0
       flux                     0                     0                     0
          v                     0                     0                     0
          i            0.00046682            0.00046682           0.000466693
          p                     0                     0                     0

 Inductor: Fixed inductor
     device          l.xlsrc_l.l1         l.xlgate_l.l1         l.xlgate_l.l0
      model                     L                     L                     L
 inductance             2.895e-09             7.605e-10             7.605e-10
      dtemp                     0                     0                     0
         nt                     0                     0                     0
       flux                     0                     0                     0
          v                     0                     0                     0
          i           0.000466693          -3.68427e-14          -3.68427e-14
          p                     0                    -0                    -0

 Resistor: Simple linear resistor
     device                 rload         r.xoutcap.rs2         r.xoutcap.rs1
      model                     R                     R                     R
 resistance                    50            0.00203518                 0.047
         ac                    50            0.00203518                 0.047
      dtemp                     0                     0                     0
     bv_max                 1e+99                 1e+99                 1e+99
      noisy                     1                     1                     1
          i                     0                     0                     0
          p                     0                     0                     0

 Resistor: Simple linear resistor
     device         r.xlload_l.r9        r.xlload_l.r10        r.xlload_l.r13
      model                     R                     R                     R
 resistance                1.7645                  3670                 9.312
         ac                1.7645                  3670                 9.312
      dtemp                     0                     0                     0
     bv_max                 1e+99                 1e+99                 1e+99
      noisy                     1                     1                     1
          i            0.00046682                     0             4.769e-17
          p           3.84522e-07                     0           2.11786e-32

 Resistor: Simple linear resistor
     device         r.xlload_l.r2         r.xlload_l.r3        r.xlload_l.r26
      model                     R                     R                     R
 resistance                1.7645                  3670                  0.01
         ac                1.7645                  3670                  0.01
      dtemp                     0                     0                     0
     bv_max                 1e+99                 1e+99                 1e+99
      noisy                     1                     1                     1
          i            0.00046682                     0            0.00046682
          p           3.84522e-07                     0           2.17921e-09

 Resistor: Simple linear resistor
     device        r.xlload_l.r31         r.xlsrc_c.rs2         r.xlsrc_c.rs1
      model                     R                     R                     R
 resistance                  0.01            0.00567223                 0.047
         ac                  0.01            0.00567223                 0.047
      dtemp                     0                     0                     0
     bv_max                 1e+99                 1e+99                 1e+99
      noisy                     1                     1                     1
          i            0.00046682                     0                     0
          p           2.17921e-09                     0                     0

 Resistor: Simple linear resistor
     device          r.xlsrc_l.r9         r.xlsrc_l.r10         r.xlsrc_l.r13
      model                     R                     R                     R
 resistance                1.7645                  3670                 9.312
         ac                1.7645                  3670                 9.312
      dtemp                     0                     0                     0
     bv_max                 1e+99                 1e+99                 1e+99
      noisy                     1                     1                     1
          i           0.000466693                     0                     0
          p           3.84313e-07                     0                     0

 Resistor: Simple linear resistor
     device          r.xlsrc_l.r2          r.xlsrc_l.r3         r.xlsrc_l.r26
      model                     R                     R                     R
 resistance                1.7645                  3670                  0.01
         ac                1.7645                  3670                  0.01
      dtemp                     0                     0                     0
     bv_max                 1e+99                 1e+99                 1e+99
      noisy                     1                     1                     1
          i           0.000466693                     0           0.000466693
          p           3.84313e-07                     0           2.17803e-09

 Resistor: Simple linear resistor
     device         r.xlsrc_l.r31                 rbias         r.xlgate_l.r9
      model                     R                     R                     R
 resistance                  0.01                 1e+06                 1.019
         ac                  0.01                 1e+06                 1.019
      dtemp                     0                     0                     0
     bv_max                 1e+99                 1e+99                 1e+99
      noisy                     1                     1                     1
          i           0.000466693          -3.42373e-14          -3.69348e-14
          p           2.17803e-09           1.17219e-21            1.3901e-27

 Resistor: Simple linear resistor
     device         r.xlgate_l.r0        r.xlgate_l.r10        r.xlgate_l.r13
      model                     R                     R                     R
 resistance                 1.019                 21.56                 50.11
         ac                 1.019                 21.56                 50.11
      dtemp                     0                     0                     0
     bv_max                 1e+99                 1e+99                 1e+99
      noisy                     1                     1                     1
          i          -3.68258e-14                     0          -6.64672e-18
          p           1.38191e-27                     0            2.2138e-33

 Resistor: Simple linear resistor
     device         r.xlgate_l.r1        r.xlgate_l.r26        r.xlgate_l.r31
      model                     R                     R                     R
 resistance                 21.56                  0.01                  0.01
         ac                 21.56                  0.01                  0.01
      dtemp                     0                     0                     0
     bv_max                 1e+99                 1e+99                 1e+99
      noisy                     1                     1                     1
          i                     0          -4.44089e-14          -4.44089e-14
          p                     0           1.97215e-29           1.97215e-29

 Resistor: Simple linear resistor
     device          r.xincap.rs2          r.xincap.rs1               rsource
      model                     R                     R                     R
 resistance            0.00203518                 0.047                    50
         ac            0.00203518                 0.047                    50
      dtemp                     0                     0                     0
     bv_max                 1e+99                 1e+99                 1e+99
      noisy                     1                     1                     1
          i                     0                     0                     0
          p                     0                     0                     0

 Vsource: Independent voltage source
     device                   vin                 vbias                   vdd
         dc                     0                   0.9                   1.8
      acmag                     1                     0                     0
      pulse         -         -         -
        sin         -         -         -
        exp         -         -         -
        pwl         -         -         -
       sffm         -         -         -
         am         -         -         -
    trnoise         -         -         -
   trrandom         -         -         -
    portnum                     0                     0                     0
         z0                     0                     0                     0
        pwr                     0                     0                     0
       freq                     0                     0                     0
      phase                     0                     0                     0
          i                     0          -3.42373e-14          -0.000466877
          p                     0          -3.08136e-14          -0.000840378

Doing analysis at TEMP = 27.000000 and TNOM = 27.000000

Using SPARSE 1.3 as Direct Linear Solver
Warning: Source conductance reset to 1.0e3 mho.

No. of Data Rows : 401
gain_db             =  -3.12991e+01
f_3db_low           =  1.84222e+09
 meas ac f_3db_high when gain_db_vector=-3.429911e+01 fall=1 failed!

Doing analysis at TEMP = 27.000000 and TNOM = 27.000000

Using SPARSE 1.3 as Direct Linear Solver
Warning: Source conductance reset to 1.0e3 mho.

No. of Data Rows : 148

No. of Data Rows : 1
vin_re              =  9.83295e-01
vin_im              =  -1.17847e-01
iin_re              =  -3.34099e-04
iin_im              =  -2.35695e-03
vout_re             =  -2.18402e-02
vout_im             =  -1.58320e-02
vin_mag             =  9.90332e-01
iin_mag             =  2.38051e-03
vout_mag            =  2.69851e-02
zin_re              =  8.95735e+00
zin_im              =  -4.15932e+02
inoise_total = 2.781961e-06
onoise_total = 7.130172e-09
Note: Simulation executed from .control section 

Error: measure  f_3db_high  when(WHEN) : out of interval
[simulate_circuits] could not set process priority to high (nice -10): [Errno 13] Permission denied
