
Note: No compatibility mode selected!


Circuit: * rf lna - common source with inductive degeneration

Doing analysis at TEMP = 27.000000 and TNOM = 27.000000

Using SPARSE 1.3 as Direct Linear Solver
Warning: Source conductance reset to 1.0e3 mho.
 Reference value :  0.00000e+00
No. of Data Rows : 1
idd = 0.000329442
pdc = 0.000592996
 ASRC: Arbitrary Source 
     device b.xlload_r.brhrpoly_5      b.xlload_r.brend
      dtemp                     0                     0
          i           3.84564e-06           3.84564e-06
          v            0.00108562           0.000261696
   pos_node                    29                     1
   neg_node                    28                    29

 BSIM4v5: Berkeley Short Channel IGFET Model-4
     device m.xn1.xsky130_fd_pr__ m.xn1.xsky130_fd_pr__
      model xn1.xsky130_fd_pr__rf xn1.xsky130_fd_pr__rf
          l               2.5e-07               2.5e-07
          w              5.05e-06              5.05e-06
          m                     2                     2
         nf                     1                     1
         sa                     0                     0
         sb                     0                     0
         sd                     0                     0
        sca                     0                     0
        scb                     0                     0
        scc                     0                     0
         sc                     0                     0
        min                     0                     0
         ad             1.515e-12              7.07e-13
         as                     0             1.414e-12
         pd              1.07e-05              5.33e-06
         ps                     0             1.066e-05
        nrd                 12.13                 24.27
        nrs                     0                 12.13
        off                     0                     0
       rbdb                100000                100000
       rbsb                100000                100000
       rbpb                   200                   200
       rbps                 0.001                 0.001
       rbpd                 0.001                 0.001
     delvto                     0                     0
      mulu0                     1                     1
        xgw               1.3e-06               1.3e-06
      ngcon                     2                     2
   trnqsmod                     0                     0
   acnqsmod                     0                     0
   rbodymod                     1                     1
   rgatemod                     3                     3
     geomod                     0                     0
    rgeomod                     0                     0
       gmbs           2.57433e-13           0.000453144
         gm           8.27072e-13            0.00233396
        gds           4.54307e-11           3.52997e-05
      vdsat              0.040899               0.16652
        vth              0.687018              0.683157
         id            3.1042e-14           0.000329367
        ibd           -7.3567e-25          -3.58565e-12
        ibs          -1.75697e-15          -1.34289e-14
        gbd            2.3124e-12                 2e-12
        gbs           2.58604e-12           2.25139e-12
       isub           1.99672e-32           7.52191e-08
      igidl                     0                     0
      igisl                     0                     0
        igs                     0                     0
        igd                     0                     0
        igb                     0                     0
       igcs                     0                     0
       igcd                     0                     0
        vbs          -0.000677837           -0.00590297
        vgs          -0.000677837               0.89409
        vds          -0.000677837               1.78546
        cgg           4.59011e-15            1.0531e-14
        cgs          -5.93542e-18          -8.90462e-15
        cgd          -6.19428e-22           2.06642e-17
        cbg          -4.59011e-15          -8.67423e-16
        cbd          -1.24876e-22           6.81514e-18
        cbs           5.93502e-18          -2.91712e-15
        cdg          -4.20996e-22          -3.86615e-15
        cdd           4.98007e-22          -1.08029e-17
        cds           6.81289e-23            4.7294e-15
        csg          -4.25698e-22          -5.79739e-15
        csd           2.46298e-22          -1.66764e-17
        css           3.26181e-22           7.09234e-15
        cgb          -4.58417e-15          -1.64701e-15
        cdb           -1.4514e-22          -8.52446e-16
        csb          -1.46781e-22          -1.27827e-15
        cbb           4.58418e-15           3.77772e-15
      capbd           1.18202e-14           4.46589e-15
      capbs           2.27738e-15           1.13072e-14
         qg           4.10352e-15           9.28153e-15
         qb          -4.10352e-15          -6.73881e-15
         qd          -1.57941e-23          -1.01724e-15
         qs          -1.59705e-23          -1.52547e-15
       qinv                     0                     0
       qdef                     0                     0
       gcrg            0.00647041              0.026889
       gtau                     0                     0
    vgsteff           6.52232e-09              0.213653
     vdseff            0.00038199               0.16336
       cgso           3.19272e-15           3.21701e-15
       cgdo           4.26506e-15           3.84429e-15
       cgbo                     0                     0
       weff           5.03164e-06           5.03164e-06
       leff            3.0878e-07            3.0878e-07

 Capacitor: Fixed capacitor
     device          c.xoutcap.c1         c.xlload_c.c1        c.xlload_l.c25
      model                     C                     C                     C
capacitance           2.06582e-13           1.33262e-13             2.237e-13
      dtemp                     0                     0                     0
     bv_max                 1e+99                 1e+99                 1e+99
          i                     0                     0                     0
          p                     0                     0                     0

 Capacitor: Fixed capacitor
     device        c.xlload_l.c24         c.xlload_l.c2         c.xlload_r.c2
      model                     C                     C                     C
capacitance              2.05e-13             2.237e-13           3.81963e-15
      dtemp                     0                     0                     0
     bv_max                 1e+99                 1e+99                 1e+99
          i                     0                     0                     0
          p                     0                     0                     0

 Capacitor: Fixed capacitor
     device         c.xlload_r.c1          c.xlsrc_c.c1          c.xlsrc_l.c0
      model                     C                     C                     C
capacitance           3.81963e-15           1.33262e-13              5.38e-14
      dtemp                     0                     0                     0
     bv_max                 1e+99                 1e+99                 1e+99
          i                     0                     0                     0
          p                     0                     0                     0

 Capacitor: Fixed capacitor
     device         c.xlsrc_l.c25         c.xlsrc_l.c24         c.xlgate_l.c1
      model                     C                     C                     C
capacitance              5.38e-14             8.337e-15              3.57e-13
      dtemp                     0                     0                     0
     bv_max                 1e+99                 1e+99                 1e+99
          i                     0                     0                     0
          p                     0                     0                     0

 Capacitor: Fixed capacitor
     device        c.xlgate_l.c25        c.xlgate_l.c24           c.xincap.c1
      model                     C                     C                     C
capacitance              3.57e-13             1.031e-13           2.06582e-13
      dtemp                     0                     0                     0
     bv_max                 1e+99                 1e+99                 1e+99
          i                     0                     0                     0
          p                     0                    -0                    -0

 Inductor: Fixed inductor
     device         l.xlload_l.l3         l.xlload_l.l1          l.xlsrc_l.l1
      model                     L                     L                     L
 inductance              4.96e-09              4.96e-09             7.605e-10
      dtemp                     0                     0                     0
         nt                     0                     0                     0
       flux                     0                     0                     0
          v                     0                     0                     0
          i           0.000325597           0.000325597           0.000329367
          p                     0                     0                     0

 Inductor: Fixed inductor
     device          l.xlsrc_l.l0         l.xlgate_l.l2         l.xlgate_l.l1
      model                     L                     L                     L
 inductance             7.605e-10             2.895e-09             2.895e-09
      dtemp                     0                     0                     0
         nt                     0                     0                     0
       flux                     0                     0                     0
          v                     0                     0                     0
          i           0.000329367          -3.64294e-14          -3.64294e-14
          p                     0                    -0                    -0

 Resistor: Simple linear resistor
     device                 rload         r.xoutcap.rs2         r.xoutcap.rs1
      model                     R                     R                     R
 resistance                    50            0.00203518                 0.047
         ac                    50            0.00203518                 0.047
      dtemp                     0                     0                     0
     bv_max                 1e+99                 1e+99                 1e+99
      noisy                     1                     1                     1
          i                     0                     0                     0
          p                     0                     0                     0

 Resistor: Simple linear resistor
     device        r.xlload_c.rs2        r.xlload_c.rs1         r.xlload_l.r9
      model                     R                     R                     R
 resistance            0.00318396                 0.047                 2.059
         ac            0.00318396                 0.047                 2.059
      dtemp                     0                     0                     0
     bv_max                 1e+99                 1e+99                 1e+99
      noisy                     1                     1                     1
          i                     0                     0           0.000325597
          p                     0                     0           2.18281e-07

 Resistor: Simple linear resistor
     device        r.xlload_l.r10        r.xlload_l.r13         r.xlload_l.r4
      model                     R                     R                     R
 resistance                  5358                 9.064                 2.059
         ac                  5358                 9.064                 2.059
      dtemp                     0                     0                     0
     bv_max                 1e+99                 1e+99                 1e+99
      noisy                     1                     1                     1
          i                     0           2.44974e-17           0.000325597
          p                     0           5.43952e-33           2.18281e-07

 Resistor: Simple linear resistor
     device         r.xlload_l.r5        r.xlload_l.r26        r.xlload_l.r31
      model                     R                     R                     R
 resistance                  5358                  0.01                  0.01
         ac                  5358                  0.01                  0.01
      dtemp                     0                     0                     0
     bv_max                 1e+99                 1e+99                 1e+99
      noisy                     1                     1                     1
          i                     0           0.000325597           0.000325597
          p                     0           1.06013e-09           1.06013e-09

 Resistor: Simple linear resistor
     device         r.xlsrc_c.rs2         r.xlsrc_c.rs1          r.xlsrc_l.r9
      model                     R                     R                     R
 resistance            0.00318396                 0.047                 1.019
         ac            0.00318396                 0.047                 1.019
      dtemp                     0                     0                     0
     bv_max                 1e+99                 1e+99                 1e+99
      noisy                     1                     1                     1
          i                     0                     0           0.000329367
          p                     0                     0           1.10544e-07

 Resistor: Simple linear resistor
     device          r.xlsrc_l.r0         r.xlsrc_l.r10         r.xlsrc_l.r13
      model                     R                     R                     R
 resistance                 1.019                 21.56                 50.11
         ac                 1.019                 21.56                 50.11
      dtemp                     0                     0                     0
     bv_max                 1e+99                 1e+99                 1e+99
      noisy                     1                     1                     1
          i           0.000329367                     0                     0
          p           1.10544e-07                     0                     0

 Resistor: Simple linear resistor
     device          r.xlsrc_l.r1         r.xlsrc_l.r26         r.xlsrc_l.r31
      model                     R                     R                     R
 resistance                 21.56                  0.01                  0.01
         ac                 21.56                  0.01                  0.01
      dtemp                     0                     0                     0
     bv_max                 1e+99                 1e+99                 1e+99
      noisy                     1                     1                     1
          i                     0           0.000329367           0.000329367
          p                     0           1.08483e-09           1.08483e-09

 Resistor: Simple linear resistor
     device                 rbias         r.xlgate_l.r9        r.xlgate_l.r10
      model                     R                     R                     R
 resistance                 1e+06                1.7645                  3670
         ac                 1e+06                1.7645                  3670
      dtemp                     0                     0                     0
     bv_max                 1e+99                 1e+99                 1e+99
      noisy                     1                     1                     1
          i          -3.36115e-14          -3.64307e-14                     0
          p           1.12973e-21           2.34183e-27                     0

 Resistor: Simple linear resistor
     device        r.xlgate_l.r13         r.xlgate_l.r2         r.xlgate_l.r3
      model                     R                     R                     R
 resistance                 9.312                1.7645                  3670
         ac                 9.312                1.7645                  3670
      dtemp                     0                     0                     0
     bv_max                 1e+99                 1e+99                 1e+99
      noisy                     1                     1                     1
          i                     0          -3.64936e-14                     0
          p                     0           2.34993e-27                     0

 Resistor: Simple linear resistor
     device        r.xlgate_l.r26        r.xlgate_l.r31          r.xincap.rs2
      model                     R                     R                     R
 resistance                  0.01                  0.01            0.00203518
         ac                  0.01                  0.01            0.00203518
      dtemp                     0                     0                     0
     bv_max                 1e+99                 1e+99                 1e+99
      noisy                     1                     1                     1
          i          -4.44089e-14          -4.44089e-14                     0
          p           1.97215e-29           1.97215e-29                     0

 Resistor: Simple linear resistor
     device          r.xincap.rs1               rsource
      model                     R                     R
 resistance                 0.047                    50
         ac                 0.047                    50
      dtemp                     0                     0
     bv_max                 1e+99                 1e+99
      noisy                     1                     1
          i                     0                     0
          p                     0                     0

 Vsource: Independent voltage source
     device                   vin                 vbias                   vdd
         dc                     0                   0.9                   1.8
      acmag                     1                     0                     0
      pulse         -         -         -
        sin         -         -         -
        exp         -         -         -
        pwl         -         -         -
       sffm         -         -         -
         am         -         -         -
    trnoise         -         -         -
   trrandom         -         -         -
    portnum                     0                     0                     0
         z0                     0                     0                     0
        pwr                     0                     0                     0
       freq                     0                     0                     0
      phase                     0                     0                     0
          i                     0          -3.36115e-14          -0.000329442
          p                     0          -3.02503e-14          -0.000592996

Doing analysis at TEMP = 27.000000 and TNOM = 27.000000

Using SPARSE 1.3 as Direct Linear Solver
Warning: Source conductance reset to 1.0e3 mho.

No. of Data Rows : 401
gain_db             =  -2.55050e+01
f_3db_low           =  1.63233e+09
f_3db_high          =  6.11891e+09
Doing analysis at TEMP = 27.000000 and TNOM = 27.000000

Using SPARSE 1.3 as Direct Linear Solver
Warning: Source conductance reset to 1.0e3 mho.

No. of Data Rows : 115

No. of Data Rows : 1
vin_re              =  9.63143e-01
vin_im              =  -2.74492e-02
iin_re              =  -7.37132e-04
iin_im              =  -5.48984e-04
vout_re             =  -4.60835e-02
vout_im             =  2.21275e-02
vin_mag             =  9.63534e-01
iin_mag             =  9.19105e-04
vout_mag            =  5.11235e-02
zin_re              =  8.22611e+02
zin_im              =  -6.49934e+02
inoise_total = 1.181354e-06
onoise_total = 3.500729e-09
Note: Simulation executed from .control section 
[simulate_circuits] could not set process priority to high (nice -10): [Errno 13] Permission denied
