
Note: No compatibility mode selected!


Circuit: * rf lna - common source with inductive degeneration

Doing analysis at TEMP = 27.000000 and TNOM = 27.000000

Using SPARSE 1.3 as Direct Linear Solver
 Reference value :  0.00000e+00
No. of Data Rows : 1
idd = 0.00118169
pdc = 0.00212705
Doing analysis at TEMP = 27.000000 and TNOM = 27.000000

Using SPARSE 1.3 as Direct Linear Solver

No. of Data Rows : 401
gain_db             =  7.821575e-01
f_3db_low           =  1.758872e+09
f_3db_high          =  8.331429e+09
Doing analysis at TEMP = 27.000000 and TNOM = 27.000000

Using SPARSE 1.3 as Direct Linear Solver

No. of Data Rows : 136

No. of Data Rows : 1
vin_re              =  9.783646e-01
vin_im              =  -7.628075e-02
iin_re              =  -4.327074e-04
iin_im              =  -1.525615e-03
vout_re             =  -8.821817e-01
vout_im             =  -6.121718e-01
out_noise = 2.74488E-18
in_noise = 2.38049E-18
inoise_total = 1.404926e-08
onoise_total = 1.222655e-08
Note: Simulation executed from .control section 
