
Note: No compatibility mode selected!


Circuit: * rf lna - common source with inductive degeneration

Doing analysis at TEMP = 27.000000 and TNOM = 27.000000

Using SPARSE 1.3 as Direct Linear Solver
 Reference value :  0.00000e+00
No. of Data Rows : 1
idd = 0.00161768
pdc = 0.00291183
Doing analysis at TEMP = 27.000000 and TNOM = 27.000000

Using SPARSE 1.3 as Direct Linear Solver

No. of Data Rows : 401
gain_db             =  3.327779e+00
f_3db_low           =  1.771924e+09
f_3db_high          =  6.864095e+09
Doing analysis at TEMP = 27.000000 and TNOM = 27.000000

Using SPARSE 1.3 as Direct Linear Solver

No. of Data Rows : 118

No. of Data Rows : 1
vin_re              =  9.546798e-01
vin_im              =  -1.069310e-01
iin_re              =  -9.064047e-04
iin_im              =  -2.138620e-03
vout_re             =  -1.277839e+00
vout_im             =  -5.938808e-01
out_noise = 3.73814E-18
in_noise = 1.88276E-18
inoise_total = 8.652693e-09
onoise_total = 1.197958e-08
Note: Simulation executed from .control section 
