
Note: No compatibility mode selected!


Circuit: * rf lna - common source with inductive degeneration

Doing analysis at TEMP = 27.000000 and TNOM = 27.000000

Using SPARSE 1.3 as Direct Linear Solver
Warning: Source conductance reset to 1.0e3 mho.
 Reference value :  0.00000e+00
No. of Data Rows : 1
idd = 0.000145364
pdc = 0.000261656
 ASRC: Arbitrary Source 
     device b.xlload_r.xsky130_fd b.xlload_r.xsky130_fd b.xlsrc_r.xsky130_fd_
      dtemp                     0                     0                     0
          i           3.29348e-07           3.29348e-07           1.63934e-07
          v           2.53758e-05           0.000574778            1.2631e-05
   pos_node                     1                    30                    18
   neg_node                    30                    29                    17

 ASRC: Arbitrary Source 
     device b.xlsrc_r.xsky130_fd_
      dtemp                     0
          i           1.63934e-07
          v           0.000286098
   pos_node                    17
   neg_node                     0

 BSIM4v5: Berkeley Short Channel IGFET Model-4
     device m.xn1.xsky130_fd_pr__ m.xn1.xsky130_fd_pr__
      model xn1.xsky130_fd_pr__rf xn1.xsky130_fd_pr__rf
          l               2.5e-07               2.5e-07
          w              5.05e-06              5.05e-06
          m                     2                     2
         nf                     1                     1
         sa                     0                     0
         sb                     0                     0
         sd                     0                     0
        sca                     0                     0
        scb                     0                     0
        scc                     0                     0
         sc                     0                     0
        min                     0                     0
         ad             1.515e-12              7.07e-13
         as                     0             1.414e-12
         pd              1.07e-05              5.33e-06
         ps                     0             1.066e-05
        nrd                 12.13                 24.27
        nrs                     0                 12.13
        off                     0                     0
       rbdb                100000                100000
       rbsb                100000                100000
       rbpb                   200                   200
       rbps                 0.001                 0.001
       rbpd                 0.001                 0.001
     delvto                     0                     0
      mulu0                     1                     1
        xgw               1.3e-06               1.3e-06
      ngcon                     2                     2
   trnqsmod                     0                     0
   acnqsmod                     0                     0
   rbodymod                     1                     1
   rgatemod                     3                     3
     geomod                     0                     0
    rgeomod                     0                     0
       gmbs           1.13961e-13           0.000290809
         gm           3.66126e-13            0.00147685
        gds           4.58388e-11           2.12606e-05
      vdsat              0.040899               0.12274
        vth              0.687019              0.682406
         id           1.37416e-14           0.000145319
        ibd          -3.26218e-25          -3.59529e-12
        ibs          -7.75316e-16          -5.95677e-15
        gbd            2.3124e-12                 2e-12
        gbs           2.59273e-12           2.27746e-12
       isub           3.88393e-33           4.51682e-08
      igidl                     0                     0
      igisl                     0                     0
        igs                     0                     0
        igd                     0                     0
        igb                     0                     0
       igcs                     0                     0
       igcd                     0                     0
        vbs          -0.000298729           -0.00260286
        vgs          -0.000298729              0.797393
        vds          -0.000298729               1.79358
        cgg           4.59011e-15           1.02968e-14
        cgs           -5.9354e-18          -8.61216e-15
        cgd           -6.4688e-22            2.0131e-17
        cbg          -4.59011e-15          -8.81441e-16
        cbd          -1.30425e-22           6.84535e-18
        cbs           5.93503e-18          -2.91401e-15
        cdg          -4.26135e-22          -3.76674e-15
        cdd           5.19262e-22          -1.06866e-17
        cds           5.37841e-23            4.6111e-15
        csg          -4.28246e-22          -5.64862e-15
        csd           2.58043e-22          -1.62898e-17
        css           3.17862e-22           6.91508e-15
        cgb          -4.58417e-15          -1.70477e-15
        cdb          -1.46911e-22          -8.33669e-16
        csb          -1.47659e-22          -1.25017e-15
        cbb           4.58418e-15           3.78861e-15
      capbd           1.18202e-14           4.46403e-15
      capbs           2.27752e-15           1.13157e-14
         qg           4.10352e-15            8.2676e-15
         qb          -4.10352e-15          -6.64208e-15
         qd          -1.59869e-23          -6.50298e-16
         qs          -1.60661e-23          -9.75223e-16
       qinv                     0                     0
       qdef                     0                     0
       gcrg            0.00647042             0.0186918
       gtau                     0                     0
    vgsteff           6.52213e-09              0.126158
     vdseff           0.000168732               0.12048
       cgso           3.19278e-15           3.21691e-15
       cgdo           4.26506e-15           3.82684e-15
       cgbo                     0                     0
       weff           5.03164e-06           5.03164e-06
       leff            3.0878e-07            3.0878e-07

 Capacitor: Fixed capacitor
     device          c.xoutcap.c1         c.xlload_c.c1        c.xlload_l.c25
      model                     C                     C                     C
capacitance           2.06582e-13           1.33262e-13             2.237e-13
      dtemp                     0                     0                     0
     bv_max                 1e+99                 1e+99                 1e+99
          i                     0                     0                     0
          p                     0                     0                     0

 Capacitor: Fixed capacitor
     device        c.xlload_l.c24         c.xlload_l.c2 c.xlload_r.xsky130_fd
      model                     C                     C                     C
capacitance              2.05e-13             2.237e-13           3.53226e-15
      dtemp                     0                     0                     0
     bv_max                 1e+99                 1e+99                 1e+99
          i                     0                     0                     0
          p                     0                     0                     0

 Capacitor: Fixed capacitor
     device c.xlload_r.xsky130_fd          c.xlsrc_c.c1          c.xlsrc_l.c0
      model                     C                     C                     C
capacitance           3.53226e-15           2.06582e-13              5.38e-14
      dtemp                     0                     0                     0
     bv_max                 1e+99                 1e+99                 1e+99
          i                     0                     0                     0
          p                     0                     0                     0

 Capacitor: Fixed capacitor
     device         c.xlsrc_l.c25         c.xlsrc_l.c24 c.xlsrc_r.xsky130_fd_
      model                     C                     C                     C
capacitance              5.38e-14             8.337e-15           3.53226e-15
      dtemp                     0                     0                     0
     bv_max                 1e+99                 1e+99                 1e+99
          i                     0                     0                     0
          p                     0                     0                     0

 Capacitor: Fixed capacitor
     device c.xlsrc_r.xsky130_fd_         c.xlgate_l.c0        c.xlgate_l.c25
      model                     C                     C                     C
capacitance           3.53226e-15              5.38e-14              5.38e-14
      dtemp                     0                     0                     0
     bv_max                 1e+99                 1e+99                 1e+99
          i                     0                     0                     0
          p                     0                     0                     0

 Capacitor: Fixed capacitor
     device        c.xlgate_l.c24           c.xincap.c1
      model                     C                     C
capacitance             8.337e-15           2.06582e-13
      dtemp                     0                     0
     bv_max                 1e+99                 1e+99
          i                     0                     0
          p                    -0                    -0

 Inductor: Fixed inductor
     device         l.xlload_l.l3         l.xlload_l.l1          l.xlsrc_l.l1
      model                     L                     L                     L
 inductance              4.96e-09              4.96e-09             7.605e-10
      dtemp                     0                     0                     0
         nt                     0                     0                     0
       flux                     0                     0                     0
          v                     0                     0                     0
          i           0.000145035           0.000145035           0.000145155
          p                     0                     0                     0

 Inductor: Fixed inductor
     device          l.xlsrc_l.l0         l.xlgate_l.l1         l.xlgate_l.l0
      model                     L                     L                     L
 inductance             7.605e-10             7.605e-10             7.605e-10
      dtemp                     0                     0                     0
         nt                     0                     0                     0
       flux                     0                     0                     0
          v                     0                     0                     0
          i           0.000145155          -3.28669e-14          -3.28669e-14
          p                     0                    -0                    -0

 Resistor: Simple linear resistor
     device                 rload         r.xoutcap.rs2         r.xoutcap.rs1
      model                     R                     R                     R
 resistance                    50            0.00203518                 0.047
         ac                    50            0.00203518                 0.047
      dtemp                     0                     0                     0
     bv_max                 1e+99                 1e+99                 1e+99
      noisy                     1                     1                     1
          i                     0                     0                     0
          p                     0                     0                     0

 Resistor: Simple linear resistor
     device        r.xlload_c.rs2        r.xlload_c.rs1         r.xlload_l.r9
      model                     R                     R                     R
 resistance            0.00318396                 0.047                 2.059
         ac            0.00318396                 0.047                 2.059
      dtemp                     0                     0                     0
     bv_max                 1e+99                 1e+99                 1e+99
      noisy                     1                     1                     1
          i                     0                     0           0.000145035
          p                     0                     0           4.33113e-08

 Resistor: Simple linear resistor
     device        r.xlload_l.r10        r.xlload_l.r13         r.xlload_l.r4
      model                     R                     R                     R
 resistance                  5358                 9.064                 2.059
         ac                  5358                 9.064                 2.059
      dtemp                     0                     0                     0
     bv_max                 1e+99                 1e+99                 1e+99
      noisy                     1                     1                     1
          i                     0           2.44974e-17           0.000145035
          p                     0           5.43952e-33           4.33113e-08

 Resistor: Simple linear resistor
     device         r.xlload_l.r5        r.xlload_l.r26        r.xlload_l.r31
      model                     R                     R                     R
 resistance                  5358                  0.01                  0.01
         ac                  5358                  0.01                  0.01
      dtemp                     0                     0                     0
     bv_max                 1e+99                 1e+99                 1e+99
      noisy                     1                     1                     1
          i                     0           0.000145035           0.000145035
          p                     0           2.10351e-10           2.10351e-10

 Resistor: Simple linear resistor
     device         r.xlsrc_c.rs2         r.xlsrc_c.rs1          r.xlsrc_l.r9
      model                     R                     R                     R
 resistance            0.00203518                 0.047                 1.019
         ac            0.00203518                 0.047                 1.019
      dtemp                     0                     0                     0
     bv_max                 1e+99                 1e+99                 1e+99
      noisy                     1                     1                     1
          i                     0                     0           0.000145155
          p                     0                     0           2.14703e-08

 Resistor: Simple linear resistor
     device          r.xlsrc_l.r0         r.xlsrc_l.r10         r.xlsrc_l.r13
      model                     R                     R                     R
 resistance                 1.019                 21.56                 50.11
         ac                 1.019                 21.56                 50.11
      dtemp                     0                     0                     0
     bv_max                 1e+99                 1e+99                 1e+99
      noisy                     1                     1                     1
          i           0.000145155                     0                     0
          p           2.14703e-08                     0                     0

 Resistor: Simple linear resistor
     device          r.xlsrc_l.r1         r.xlsrc_l.r26         r.xlsrc_l.r31
      model                     R                     R                     R
 resistance                 21.56                  0.01                  0.01
         ac                 21.56                  0.01                  0.01
      dtemp                     0                     0                     0
     bv_max                 1e+99                 1e+99                 1e+99
      noisy                     1                     1                     1
          i                     0           0.000145155           0.000145155
          p                     0             2.107e-10             2.107e-10

 Resistor: Simple linear resistor
     device                 rbias         r.xlgate_l.r9         r.xlgate_l.r0
      model                     R                     R                     R
 resistance                 1e+06                 1.019                 1.019
         ac                 1e+06                 1.019                 1.019
      dtemp                     0                     0                     0
     bv_max                 1e+99                 1e+99                 1e+99
      noisy                     1                     1                     1
          i           -2.9877e-14          -3.27946e-14          -3.29036e-14
          p           8.92635e-22           1.09592e-27           1.10322e-27

 Resistor: Simple linear resistor
     device        r.xlgate_l.r10        r.xlgate_l.r13         r.xlgate_l.r1
      model                     R                     R                     R
 resistance                 21.56                 50.11                 21.56
         ac                 21.56                 50.11                 21.56
      dtemp                     0                     0                     0
     bv_max                 1e+99                 1e+99                 1e+99
      noisy                     1                     1                     1
          i                     0          -2.21557e-18                     0
          p                     0           2.45978e-34                     0

 Resistor: Simple linear resistor
     device        r.xlgate_l.r26        r.xlgate_l.r31          r.xincap.rs2
      model                     R                     R                     R
 resistance                  0.01                  0.01            0.00203518
         ac                  0.01                  0.01            0.00203518
      dtemp                     0                     0                     0
     bv_max                 1e+99                 1e+99                 1e+99
      noisy                     1                     1                     1
          i          -3.33067e-14          -3.33067e-14                     0
          p           1.10934e-29           1.10934e-29                     0

 Resistor: Simple linear resistor
     device          r.xincap.rs1               rsource
      model                     R                     R
 resistance                 0.047                    50
         ac                 0.047                    50
      dtemp                     0                     0
     bv_max                 1e+99                 1e+99
      noisy                     1                     1
          i                     0                     0
          p                     0                     0

 Vsource: Independent voltage source
     device                   vin                 vbias                   vdd
         dc                     0                   0.8                   1.8
      acmag                     1                     0                     0
      pulse         -         -         -
        sin         -         -         -
        exp         -         -         -
        pwl         -         -         -
       sffm         -         -         -
         am         -         -         -
    trnoise         -         -         -
   trrandom         -         -         -
    portnum                     0                     0                     0
         z0                     0                     0                     0
        pwr                     0                     0                     0
       freq                     0                     0                     0
      phase                     0                     0                     0
          i                     0           -2.9877e-14          -0.000145364
          p                     0          -2.39016e-14          -0.000261656

Doing analysis at TEMP = 27.000000 and TNOM = 27.000000

Using SPARSE 1.3 as Direct Linear Solver
Warning: Source conductance reset to 1.0e3 mho.

No. of Data Rows : 401
gain_db             =  -3.32165e+01
f_3db_low           =  1.49837e+09
f_3db_high          =  7.11800e+09
Doing analysis at TEMP = 27.000000 and TNOM = 27.000000

Using SPARSE 1.3 as Direct Linear Solver
Warning: Source conductance reset to 1.0e3 mho.

No. of Data Rows : 136

No. of Data Rows : 1
vin_re              =  9.79396e-01
vin_im              =  -1.23665e-01
iin_re              =  -4.12089e-04
iin_im              =  -2.47330e-03
vout_re             =  -1.78519e-02
vout_im             =  1.20814e-02
vin_mag             =  9.87172e-01
iin_mag             =  2.50740e-03
vout_mag            =  2.15560e-02
zin_re              =  1.55442e+01
zin_im              =  -3.93407e+02
inoise_total = 8.019688e-06
onoise_total = 4.578471e-09
Note: Simulation executed from .control section 
[simulate_circuits] could not set process priority to high (nice -10): [Errno 13] Permission denied
