
Note: No compatibility mode selected!


Circuit: * rf lna - common source with inductive degeneration

Doing analysis at TEMP = 27.000000 and TNOM = 27.000000

Using SPARSE 1.3 as Direct Linear Solver
Warning: Source conductance reset to 1.0e3 mho.
Warning: Drain conductance reset to 1.0e3 mho.
 Reference value :  0.00000e+00
No. of Data Rows : 1
idd = 0.000665932
pdc = 0.00119868
 ASRC: Arbitrary Source 
     device b.xlload_r.brhrpoly_2      b.xlload_r.brend b.xlsrc_r.brhrpoly_1p
      dtemp                     0                     0                     0
          i           3.81197e-06           3.81197e-06           9.55615e-07
          v            0.00216444           0.000575415             0.0010992
   pos_node                    30                     1                    18
   neg_node                    29                    30                     0

 ASRC: Arbitrary Source 
     device       b.xlsrc_r.brend
      dtemp                     0
          i           9.55615e-07
          v           0.000269045
   pos_node                    17
   neg_node                    18

 BSIM4v5: Berkeley Short Channel IGFET Model-4
     device m.xn1.msky130_fd_pr__
      model xn1:sky130_fd_pr__rf_
          l               1.8e-07
          w              5.05e-06
          m                     1
         nf                     1
         sa                     0
         sb                     0
         sd                     0
        sca                     0
        scb                     0
        scc                     0
         sc                     0
        min                     0
         ad                     0
         as                     0
         pd                     0
         ps                     0
        nrd                     0
        nrs                     0
        off                     0
       rbdb                100000
       rbsb                100000
       rbpb                   200
       rbps                 0.001
       rbpd                 0.001
     delvto                     0
      mulu0                     1
        xgw              1.35e-06
      ngcon                     2
   trnqsmod                     0
   acnqsmod                     0
   rbodymod                     1
   rgatemod                     3
     geomod                     0
    rgeomod                     0
       gmbs           0.000259106
         gm            0.00235478
        gds           0.000112132
      vdsat              0.197797
        vth              0.601758
         id           0.000665796
        ibd          -1.79397e-12
        ibs          -1.79246e-14
        gbd                 1e-12
        gbs           1.19428e-12
       isub           1.35454e-07
      igidl                     0
      igisl                     0
        igs                     0
        igd                     0
        igb                     0
       igcs                     0
       igcd                     0
        vbs            -0.0144216
        vgs              0.985551
        vds               1.76954
        cgg           3.41019e-15
        cgs          -2.76059e-15
        cgd            3.7961e-17
        cbg          -1.62529e-16
        cbd           1.37532e-17
        cbs          -1.02662e-15
        cdg          -1.29944e-15
        cdd          -2.05435e-17
        cds           1.51517e-15
        csg          -1.94822e-15
        csd          -3.11707e-17
        css           2.27205e-15
        cgb          -6.87562e-16
        cdb          -1.95185e-16
        csb          -2.92652e-16
        cbb            1.1754e-15
      capbd           1.03175e-15
      capbs           1.26317e-15
         qg           3.45188e-15
         qb          -2.05904e-15
         qd          -5.57243e-16
         qs          -8.35597e-16
       qinv                     0
       qdef                     0
       gcrg             0.0395339
       gtau                     0
    vgsteff              0.383919
     vdseff              0.193934
       cgso           1.91736e-15
       cgdo           1.70284e-15
       cgbo                     0
       weff           5.03164e-06
       leff              1.88e-07

 Capacitor: Fixed capacitor
     device          c.xoutcap.c1         c.xlload_c.c1        c.xlload_l.c25
      model                     C                     C                     C
capacitance           2.06582e-13           1.33262e-13             2.237e-13
      dtemp                     0                     0                     0
     bv_max                 1e+99                 1e+99                 1e+99
          i                     0                     0                     0
          p                     0                     0                     0

 Capacitor: Fixed capacitor
     device        c.xlload_l.c24         c.xlload_l.c2         c.xlload_r.c2
      model                     C                     C                     C
capacitance              2.05e-13             2.237e-13           2.14745e-15
      dtemp                     0                     0                     0
     bv_max                 1e+99                 1e+99                 1e+99
          i                     0                     0                     0
          p                     0                     0                     0

 Capacitor: Fixed capacitor
     device         c.xlload_r.c1          c.xlsrc_c.c1          c.xlsrc_l.c0
      model                     C                     C                     C
capacitance           2.14745e-15           1.33262e-13              5.38e-14
      dtemp                     0                     0                     0
     bv_max                 1e+99                 1e+99                 1e+99
          i                     0                     0                     0
          p                     0                     0                     0

 Capacitor: Fixed capacitor
     device         c.xlsrc_l.c25         c.xlsrc_l.c24          c.xlsrc_r.c2
      model                     C                     C                     C
capacitance              5.38e-14             8.337e-15           1.30076e-15
      dtemp                     0                     0                     0
     bv_max                 1e+99                 1e+99                 1e+99
          i                     0                     0                     0
          p                     0                     0                     0

 Capacitor: Fixed capacitor
     device          c.xlsrc_r.c1        c.xlgate_l.c25        c.xlgate_l.c24
      model                     C                     C                     C
capacitance           1.30076e-15             2.237e-13              2.05e-13
      dtemp                     0                     0                     0
     bv_max                 1e+99                 1e+99                 1e+99
          i                     0                     0                     0
          p                     0                     0                    -0

 Capacitor: Fixed capacitor
     device         c.xlgate_l.c2           c.xincap.c1
      model                     C                     C
capacitance             2.237e-13           2.06582e-13
      dtemp                     0                     0
     bv_max                 1e+99                 1e+99
          i                     0                     0
          p                     0                    -0

 Inductor: Fixed inductor
     device         l.xlload_l.l3         l.xlload_l.l1          l.xlsrc_l.l1
      model                     L                     L                     L
 inductance              4.96e-09              4.96e-09             7.605e-10
      dtemp                     0                     0                     0
         nt                     0                     0                     0
       flux                     0                     0                     0
          v                     0                     0                     0
          i            0.00066212            0.00066212            0.00066484
          p                     0                     0                     0

 Inductor: Fixed inductor
     device          l.xlsrc_l.l0         l.xlgate_l.l3         l.xlgate_l.l1
      model                     L                     L                     L
 inductance             7.605e-10              4.96e-09              4.96e-09
      dtemp                     0                     0                     0
         nt                     0                     0                     0
       flux                     0                     0                     0
          v                     0                     0                     0
          i            0.00066484          -4.00059e-14          -4.00059e-14
          p                     0                    -0                    -0

 Resistor: Simple linear resistor
     device                 rload         r.xoutcap.rs2         r.xoutcap.rs1
      model                     R                     R                     R
 resistance                    50            0.00203518                 0.047
         ac                    50            0.00203518                 0.047
      dtemp                     0                     0                     0
     bv_max                 1e+99                 1e+99                 1e+99
      noisy                     1                     1                     1
          i                     0                     0                     0
          p                     0                     0                     0

 Resistor: Simple linear resistor
     device        r.xlload_c.rs2        r.xlload_c.rs1         r.xlload_l.r9
      model                     R                     R                     R
 resistance            0.00318396                 0.047                 2.059
         ac            0.00318396                 0.047                 2.059
      dtemp                     0                     0                     0
     bv_max                 1e+99                 1e+99                 1e+99
      noisy                     1                     1                     1
          i                     0                     0            0.00066212
          p                     0                     0            9.0267e-07

 Resistor: Simple linear resistor
     device        r.xlload_l.r10        r.xlload_l.r13         r.xlload_l.r4
      model                     R                     R                     R
 resistance                  5358                 9.064                 2.059
         ac                  5358                 9.064                 2.059
      dtemp                     0                     0                     0
     bv_max                 1e+99                 1e+99                 1e+99
      noisy                     1                     1                     1
          i                     0           2.44974e-17            0.00066212
          p                     0           5.43952e-33            9.0267e-07

 Resistor: Simple linear resistor
     device         r.xlload_l.r5        r.xlload_l.r26        r.xlload_l.r31
      model                     R                     R                     R
 resistance                  5358                  0.01                  0.01
         ac                  5358                  0.01                  0.01
      dtemp                     0                     0                     0
     bv_max                 1e+99                 1e+99                 1e+99
      noisy                     1                     1                     1
          i                     0            0.00066212            0.00066212
          p                     0           4.38402e-09           4.38402e-09

 Resistor: Simple linear resistor
     device         r.xlsrc_c.rs2         r.xlsrc_c.rs1          r.xlsrc_l.r9
      model                     R                     R                     R
 resistance            0.00318396                 0.047                 1.019
         ac            0.00318396                 0.047                 1.019
      dtemp                     0                     0                     0
     bv_max                 1e+99                 1e+99                 1e+99
      noisy                     1                     1                     1
          i                     0                     0            0.00066484
          p                     0                     0           4.50411e-07

 Resistor: Simple linear resistor
     device          r.xlsrc_l.r0         r.xlsrc_l.r10         r.xlsrc_l.r13
      model                     R                     R                     R
 resistance                 1.019                 21.56                 50.11
         ac                 1.019                 21.56                 50.11
      dtemp                     0                     0                     0
     bv_max                 1e+99                 1e+99                 1e+99
      noisy                     1                     1                     1
          i            0.00066484                     0                     0
          p           4.50411e-07                     0                     0

 Resistor: Simple linear resistor
     device          r.xlsrc_l.r1         r.xlsrc_l.r26         r.xlsrc_l.r31
      model                     R                     R                     R
 resistance                 21.56                  0.01                  0.01
         ac                 21.56                  0.01                  0.01
      dtemp                     0                     0                     0
     bv_max                 1e+99                 1e+99                 1e+99
      noisy                     1                     1                     1
          i                     0            0.00066484            0.00066484
          p                     0           4.42013e-09           4.42013e-09

 Resistor: Simple linear resistor
     device                 rbias         r.xlgate_l.r9        r.xlgate_l.r10
      model                     R                     R                     R
 resistance                 1e+06                 2.059                  5358
         ac                 1e+06                 2.059                  5358
      dtemp                     0                     0                     0
     bv_max                 1e+99                 1e+99                 1e+99
      noisy                     1                     1                     1
          i          -4.84695e-14          -3.99551e-14                     0
          p            2.3493e-21           3.28701e-27                     0

 Resistor: Simple linear resistor
     device        r.xlgate_l.r13         r.xlgate_l.r4         r.xlgate_l.r5
      model                     R                     R                     R
 resistance                 9.064                 2.059                  5358
         ac                 9.064                 2.059                  5358
      dtemp                     0                     0                     0
     bv_max                 1e+99                 1e+99                 1e+99
      noisy                     1                     1                     1
          i                     0          -3.99012e-14                     0
          p                     0           3.27814e-27                     0

 Resistor: Simple linear resistor
     device        r.xlgate_l.r26        r.xlgate_l.r31          r.xincap.rs2
      model                     R                     R                     R
 resistance                  0.01                  0.01            0.00203518
         ac                  0.01                  0.01            0.00203518
      dtemp                     0                     0                     0
     bv_max                 1e+99                 1e+99                 1e+99
      noisy                     1                     1                     1
          i          -4.44089e-14          -4.44089e-14                     0
          p           1.97215e-29           1.97215e-29                     0

 Resistor: Simple linear resistor
     device          r.xincap.rs1               rsource
      model                     R                     R
 resistance                 0.047                    50
         ac                 0.047                    50
      dtemp                     0                     0
     bv_max                 1e+99                 1e+99
      noisy                     1                     1
          i                     0                     0
          p                     0                     0

 Vsource: Independent voltage source
     device                   vin                 vbias                   vdd
         dc                     0                     1                   1.8
      acmag                     1                     0                     0
      pulse         -         -         -
        sin         -         -         -
        exp         -         -         -
        pwl         -         -         -
       sffm         -         -         -
         am         -         -         -
    trnoise         -         -         -
   trrandom         -         -         -
    portnum                     0                     0                     0
         z0                     0                     0                     0
        pwr                     0                     0                     0
       freq                     0                     0                     0
      phase                     0                     0                     0
          i                     0          -4.84695e-14          -0.000665932
          p                     0          -4.84695e-14           -0.00119868

Doing analysis at TEMP = 27.000000 and TNOM = 27.000000

Using SPARSE 1.3 as Direct Linear Solver
Warning: Source conductance reset to 1.0e3 mho.
Warning: Drain conductance reset to 1.0e3 mho.

No. of Data Rows : 401
gain_db             =  -2.73756e+01
f_3db_low           =  1.45160e+09
f_3db_high          =  7.78298e+09
Doing analysis at TEMP = 27.000000 and TNOM = 27.000000

Using SPARSE 1.3 as Direct Linear Solver
Warning: Source conductance reset to 1.0e3 mho.
Warning: Drain conductance reset to 1.0e3 mho.

No. of Data Rows : 146

No. of Data Rows : 1
vin_re              =  9.82076e-01
vin_im              =  -1.10383e-02
iin_re              =  -3.58489e-04
iin_im              =  -2.20766e-04
vout_re             =  -4.11621e-02
vout_im             =  8.41398e-03
vin_mag             =  9.82138e-01
iin_mag             =  4.21013e-04
vout_mag            =  4.20137e-02
zin_re              =  1.97249e+03
zin_im              =  -1.24549e+03
inoise_total = 2.744814e-06
onoise_total = 5.181232e-09
Note: Simulation executed from .control section 
[simulate_circuits] could not set process priority to high (nice -10): [Errno 13] Permission denied
