
Note: No compatibility mode selected!


Circuit: * rf lna - common source with inductive degeneration

Doing analysis at TEMP = 27.000000 and TNOM = 27.000000

Using SPARSE 1.3 as Direct Linear Solver
Warning: Source conductance reset to 1.0e3 mho.
 Reference value :  0.00000e+00
No. of Data Rows : 1
idd = 0.00032813
pdc = 0.000590634
 ASRC: Arbitrary Source 
     device b.xlload_r.brhrpoly_2      b.xlload_r.brend b.xlsrc_r.xsky130_fd_
      dtemp                     0                     0                     0
          i           1.87819e-06           1.87819e-06           3.99232e-08
          v            0.00106644           0.000283594           2.34665e-05
   pos_node                    30                     1                    18
   neg_node                    29                    30                    17

 ASRC: Arbitrary Source 
     device b.xlsrc_r.xsky130_fd_
      dtemp                     0
          i           3.99232e-08
          v            0.00114066
   pos_node                    17
   neg_node                     0

 BSIM4v5: Berkeley Short Channel IGFET Model-4
     device m.xn1.xsky130_fd_pr__ m.xn1.xsky130_fd_pr__
      model xn1.xsky130_fd_pr__rf xn1.xsky130_fd_pr__rf
          l               2.5e-07               2.5e-07
          w              5.05e-06              5.05e-06
          m                     2                     2
         nf                     1                     1
         sa                     0                     0
         sb                     0                     0
         sd                     0                     0
        sca                     0                     0
        scb                     0                     0
        scc                     0                     0
         sc                     0                     0
        min                     0                     0
         ad             1.515e-12              7.07e-13
         as                     0             1.414e-12
         pd              1.07e-05              5.33e-06
         ps                     0             1.066e-05
        nrd                 12.13                 24.27
        nrs                     0                 12.13
        off                     0                     0
       rbdb                100000                100000
       rbsb                100000                100000
       rbpb                   200                   200
       rbps                 0.001                 0.001
       rbpd                 0.001                 0.001
     delvto                     0                     0
      mulu0                     1                     1
        xgw               1.3e-06               1.3e-06
      ngcon                     2                     2
   trnqsmod                     0                     0
   acnqsmod                     0                     0
   rbodymod                     1                     1
   rgatemod                     3                     3
     geomod                     0                     0
    rgeomod                     0                     0
       gmbs           4.39591e-13           0.000452184
         gm           1.41232e-12            0.00232947
        gds           4.49103e-11           3.52249e-05
      vdsat              0.040899              0.166272
        vth              0.687016              0.683261
         id           5.30079e-14           0.000328055
        ibd          -1.25344e-24           -3.5857e-12
        ibs          -3.01247e-15          -1.44761e-14
        gbd            2.3124e-12                 2e-12
        gbs           2.57758e-12           2.24791e-12
       isub             5.878e-32           7.48284e-08
      igidl                     0                     0
      igisl                     0                     0
        igs                     0                     0
        igd                     0                     0
        igb                     0                     0
       igcs                     0                     0
       igcd                     0                     0
        vbs           -0.00116413           -0.00636848
        vgs           -0.00116413              0.893624
        vds           -0.00116413               1.78502
        cgg           4.59011e-15             1.053e-14
        cgs          -5.93544e-18          -8.90361e-15
        cgd          -5.86506e-22           2.06641e-17
        cbg          -4.59011e-15           -8.6739e-16
        cbd          -1.18222e-22           6.81348e-18
        cbs           5.93502e-18          -2.91629e-15
        cdg          -4.14708e-22          -3.86577e-15
        cdd           4.72472e-22          -1.08026e-17
        cds           8.52085e-23           4.72867e-15
        csg          -4.22598e-22          -5.79683e-15
        csd           2.32255e-22           -1.6675e-17
        css           3.36054e-22           7.09124e-15
        cgb          -4.58417e-15          -1.64704e-15
        cdb          -1.42973e-22           -8.5209e-16
        csb          -1.45712e-22          -1.27773e-15
        cbb           4.58418e-15           3.77686e-15
      capbd           1.18202e-14           4.46588e-15
      capbs            2.2772e-15            1.1306e-14
         qg           4.10352e-15           9.27739e-15
         qb          -4.10352e-15          -6.74017e-15
         qd          -1.55582e-23          -1.01504e-15
         qs          -1.58542e-23          -1.52217e-15
       qinv                     0                     0
       qdef                     0                     0
       gcrg            0.00647041             0.0268386
       gtau                     0                     0
    vgsteff           6.52257e-09              0.213108
     vdseff           0.000654104              0.163116
       cgso           3.19265e-15           3.21701e-15
       cgdo           4.26506e-15           3.84428e-15
       cgbo                     0                     0
       weff           5.03164e-06           5.03164e-06
       leff            3.0878e-07            3.0878e-07

 Capacitor: Fixed capacitor
     device          c.xoutcap.c1         c.xlload_c.c1        c.xlload_l.c25
      model                     C                     C                     C
capacitance           2.06582e-13           9.30225e-15             2.237e-13
      dtemp                     0                     0                     0
     bv_max                 1e+99                 1e+99                 1e+99
          i                     0                     0                     0
          p                     0                     0                     0

 Capacitor: Fixed capacitor
     device        c.xlload_l.c24         c.xlload_l.c2         c.xlload_r.c2
      model                     C                     C                     C
capacitance              2.05e-13             2.237e-13           2.14745e-15
      dtemp                     0                     0                     0
     bv_max                 1e+99                 1e+99                 1e+99
          i                     0                     0                     0
          p                     0                     0                     0

 Capacitor: Fixed capacitor
     device         c.xlload_r.c1          c.xlsrc_c.c1          c.xlsrc_l.c1
      model                     C                     C                     C
capacitance           2.14745e-15           7.59422e-14              3.57e-13
      dtemp                     0                     0                     0
     bv_max                 1e+99                 1e+99                 1e+99
          i                     0                     0                     0
          p                     0                     0                     0

 Capacitor: Fixed capacitor
     device         c.xlsrc_l.c25         c.xlsrc_l.c24 c.xlsrc_r.xsky130_fd_
      model                     C                     C                     C
capacitance              3.57e-13             1.031e-13           6.49222e-16
      dtemp                     0                     0                     0
     bv_max                 1e+99                 1e+99                 1e+99
          i                     0                     0                     0
          p                     0                     0                     0

 Capacitor: Fixed capacitor
     device c.xlsrc_r.xsky130_fd_         c.xlgate_l.c0        c.xlgate_l.c25
      model                     C                     C                     C
capacitance           6.49222e-16              5.38e-14              5.38e-14
      dtemp                     0                     0                     0
     bv_max                 1e+99                 1e+99                 1e+99
          i                     0                     0                     0
          p                     0                     0                     0

 Capacitor: Fixed capacitor
     device        c.xlgate_l.c24           c.xincap.c1
      model                     C                     C
capacitance             8.337e-15           2.06582e-13
      dtemp                     0                     0
     bv_max                 1e+99                 1e+99
          i                     0                     0
          p                    -0                    -0

 Inductor: Fixed inductor
     device         l.xlload_l.l3         l.xlload_l.l1          l.xlsrc_l.l2
      model                     L                     L                     L
 inductance              4.96e-09              4.96e-09             2.895e-09
      dtemp                     0                     0                     0
         nt                     0                     0                     0
       flux                     0                     0                     0
          v                     0                     0                     0
          i           0.000326252           0.000326252           0.000328015
          p                     0                     0                     0

 Inductor: Fixed inductor
     device          l.xlsrc_l.l1         l.xlgate_l.l1         l.xlgate_l.l0
      model                     L                     L                     L
 inductance             2.895e-09             7.605e-10             7.605e-10
      dtemp                     0                     0                     0
         nt                     0                     0                     0
       flux                     0                     0                     0
          v                     0                     0                     0
          i           0.000328015          -3.69473e-14          -3.69473e-14
          p                     0                    -0                    -0

 Resistor: Simple linear resistor
     device                 rload         r.xoutcap.rs2         r.xoutcap.rs1
      model                     R                     R                     R
 resistance                    50            0.00203518                 0.047
         ac                    50            0.00203518                 0.047
      dtemp                     0                     0                     0
     bv_max                 1e+99                 1e+99                 1e+99
      noisy                     1                     1                     1
          i                     0                     0                     0
          p                     0                     0                     0

 Resistor: Simple linear resistor
     device        r.xlload_c.rs2        r.xlload_c.rs1         r.xlload_l.r9
      model                     R                     R                     R
 resistance             0.0519153                 0.047                 2.059
         ac             0.0519153                 0.047                 2.059
      dtemp                     0                     0                     0
     bv_max                 1e+99                 1e+99                 1e+99
      noisy                     1                     1                     1
          i           8.55412e-15                     0           0.000326252
          p           3.79879e-30                     0           2.19161e-07

 Resistor: Simple linear resistor
     device        r.xlload_l.r10        r.xlload_l.r13         r.xlload_l.r4
      model                     R                     R                     R
 resistance                  5358                 9.064                 2.059
         ac                  5358                 9.064                 2.059
      dtemp                     0                     0                     0
     bv_max                 1e+99                 1e+99                 1e+99
      noisy                     1                     1                     1
          i                     0           2.44974e-17           0.000326252
          p                     0           5.43952e-33           2.19161e-07

 Resistor: Simple linear resistor
     device         r.xlload_l.r5        r.xlload_l.r26        r.xlload_l.r31
      model                     R                     R                     R
 resistance                  5358                  0.01                  0.01
         ac                  5358                  0.01                  0.01
      dtemp                     0                     0                     0
     bv_max                 1e+99                 1e+99                 1e+99
      noisy                     1                     1                     1
          i                     0           0.000326252           0.000326252
          p                     0            1.0644e-09            1.0644e-09

 Resistor: Simple linear resistor
     device         r.xlsrc_c.rs2         r.xlsrc_c.rs1          r.xlsrc_l.r9
      model                     R                     R                     R
 resistance            0.00567223                 0.047                1.7645
         ac            0.00567223                 0.047                1.7645
      dtemp                     0                     0                     0
     bv_max                 1e+99                 1e+99                 1e+99
      noisy                     1                     1                     1
          i                     0                     0           0.000328015
          p                     0                     0            1.8985e-07

 Resistor: Simple linear resistor
     device         r.xlsrc_l.r10         r.xlsrc_l.r13          r.xlsrc_l.r2
      model                     R                     R                     R
 resistance                  3670                 9.312                1.7645
         ac                  3670                 9.312                1.7645
      dtemp                     0                     0                     0
     bv_max                 1e+99                 1e+99                 1e+99
      noisy                     1                     1                     1
          i                     0                     0           0.000328015
          p                     0                     0            1.8985e-07

 Resistor: Simple linear resistor
     device          r.xlsrc_l.r3         r.xlsrc_l.r26         r.xlsrc_l.r31
      model                     R                     R                     R
 resistance                  3670                  0.01                  0.01
         ac                  3670                  0.01                  0.01
      dtemp                     0                     0                     0
     bv_max                 1e+99                 1e+99                 1e+99
      noisy                     1                     1                     1
          i                     0           0.000328015           0.000328015
          p                     0           1.07594e-09           1.07594e-09

 Resistor: Simple linear resistor
     device                 rbias         r.xlgate_l.r9         r.xlgate_l.r0
      model                     R                     R                     R
 resistance                 1e+06                 1.019                 1.019
         ac                 1e+06                 1.019                 1.019
      dtemp                     0                     0                     0
     bv_max                 1e+99                 1e+99                 1e+99
      noisy                     1                     1                     1
          i          -3.36155e-14          -3.69348e-14          -3.69348e-14
          p              1.13e-21            1.3901e-27            1.3901e-27

 Resistor: Simple linear resistor
     device        r.xlgate_l.r10        r.xlgate_l.r13         r.xlgate_l.r1
      model                     R                     R                     R
 resistance                 21.56                 50.11                 21.56
         ac                 21.56                 50.11                 21.56
      dtemp                     0                     0                     0
     bv_max                 1e+99                 1e+99                 1e+99
      noisy                     1                     1                     1
          i                     0          -4.43114e-18                     0
          p                     0           9.83912e-34                     0

 Resistor: Simple linear resistor
     device        r.xlgate_l.r26        r.xlgate_l.r31          r.xincap.rs2
      model                     R                     R                     R
 resistance                  0.01                  0.01            0.00203518
         ac                  0.01                  0.01            0.00203518
      dtemp                     0                     0                     0
     bv_max                 1e+99                 1e+99                 1e+99
      noisy                     1                     1                     1
          i          -4.44089e-14          -4.44089e-14                     0
          p           1.97215e-29           1.97215e-29                     0

 Resistor: Simple linear resistor
     device          r.xincap.rs1               rsource
      model                     R                     R
 resistance                 0.047                    50
         ac                 0.047                    50
      dtemp                     0                     0
     bv_max                 1e+99                 1e+99
      noisy                     1                     1
          i                     0                     0
          p                     0                     0

 Vsource: Independent voltage source
     device                   vin                 vbias                   vdd
         dc                     0                   0.9                   1.8
      acmag                     1                     0                     0
      pulse         -         -         -
        sin         -         -         -
        exp         -         -         -
        pwl         -         -         -
       sffm         -         -         -
         am         -         -         -
    trnoise         -         -         -
   trrandom         -         -         -
    portnum                     0                     0                     0
         z0                     0                     0                     0
        pwr                     0                     0                     0
       freq                     0                     0                     0
      phase                     0                     0                     0
          i                     0          -3.36155e-14           -0.00032813
          p                     0           -3.0254e-14          -0.000590634

Doing analysis at TEMP = 27.000000 and TNOM = 27.000000

Using SPARSE 1.3 as Direct Linear Solver
Warning: Source conductance reset to 1.0e3 mho.

No. of Data Rows : 401
gain_db             =  -3.95469e+01
f_3db_low           =  1.05434e+09
 meas ac f_3db_high when gain_db_vector=-4.254687e+01 fall=1 failed!

Doing analysis at TEMP = 27.000000 and TNOM = 27.000000

Using SPARSE 1.3 as Direct Linear Solver
Warning: Source conductance reset to 1.0e3 mho.

No. of Data Rows : 196

No. of Data Rows : 1
vin_re              =  9.83200e-01
vin_im              =  -1.19422e-01
iin_re              =  -3.35992e-04
iin_im              =  -2.38844e-03
vout_re             =  -1.00860e-02
vout_im             =  -2.68537e-03
vin_mag             =  9.90427e-01
iin_mag             =  2.41196e-03
vout_mag            =  1.04432e-02
zin_re              =  7.75630e+00
zin_im              =  -4.10571e+02
inoise_total = 1.465112e-05
onoise_total = 7.015661e-09
Note: Simulation executed from .control section 

Error: measure  f_3db_high  when(WHEN) : out of interval
[simulate_circuits] could not set process priority to high (nice -10): [Errno 13] Permission denied
