
Note: No compatibility mode selected!


Circuit: * rf lna - common source with inductive degeneration

Doing analysis at TEMP = 27.000000 and TNOM = 27.000000

Using SPARSE 1.3 as Direct Linear Solver
Warning: Source conductance reset to 1.0e3 mho.
 Reference value :  0.00000e+00
No. of Data Rows : 1
idd = 0.000582051
pdc = 0.00104769
 ASRC: Arbitrary Source 
     device b.xlload_r.xsky130_fd b.xlload_r.xsky130_fd b.xlsrc_r.brhrpoly_1p
      dtemp                     0                     0                     0
          i            8.0403e-08            8.0403e-08            8.3527e-07
          v           3.24357e-05            0.00116526           0.000960769
   pos_node                     1                    30                    18
   neg_node                    30                    29                     0

 ASRC: Arbitrary Source 
     device       b.xlsrc_r.brend
      dtemp                     0
          i            8.3527e-07
          v           0.000235169
   pos_node                    17
   neg_node                    18

 BSIM4v5: Berkeley Short Channel IGFET Model-4
     device m.xn1.xsky130_fd_pr__ m.xn1.xsky130_fd_pr__
      model xn1.xsky130_fd_pr__rf xn1.xsky130_fd_pr__rf
          l               2.5e-07               2.5e-07
          w              5.05e-06              5.05e-06
          m                     2                     2
         nf                     1                     1
         sa                     0                     0
         sb                     0                     0
         sd                     0                     0
        sca                     0                     0
        scb                     0                     0
        scc                     0                     0
         sc                     0                     0
        min                     0                     0
         ad             1.515e-12              7.07e-13
         as                     0             1.414e-12
         pd              1.07e-05              5.33e-06
         ps                     0             1.066e-05
        nrd                 12.13                 24.27
        nrs                     0                 12.13
        off                     0                     0
       rbdb                100000                100000
       rbsb                100000                100000
       rbpb                   200                   200
       rbps                 0.001                 0.001
       rbpd                 0.001                 0.001
     delvto                     0                     0
      mulu0                     1                     1
        xgw               1.3e-06               1.3e-06
      ngcon                     2                     2
   trnqsmod                     0                     0
   acnqsmod                     0                     0
   rbodymod                     1                     1
   rgatemod                     3                     3
     geomod                     0                     0
    rgeomod                     0                     0
       gmbs           4.51433e-13           0.000574793
         gm           1.45037e-12            0.00298064
        gds           4.48764e-11           4.92425e-05
      vdsat              0.040899              0.203595
        vth              0.687016              0.684183
         id            5.4436e-14           0.000581952
        ibd          -1.28701e-24          -3.57478e-12
        ibs          -3.09446e-15          -2.35512e-14
        gbd            2.3124e-12                 2e-12
        gbs           2.57703e-12           2.21955e-12
       isub           6.20285e-32           9.88731e-08
      igidl                     0                     0
      igisl                     0                     0
        igs                     0                     0
        igd                     0                     0
        igb                     0                     0
       igcs                     0                     0
       igcd                     0                     0
        vbs           -0.00119594            -0.0104317
        vgs           -0.00119594              0.989558
        vds           -0.00119594                1.7755
        cgg           4.59011e-15           1.06615e-14
        cgs          -5.93544e-18          -9.06993e-15
        cgd          -5.84437e-22           2.08408e-17
        cbg          -4.59011e-15          -8.69987e-16
        cbd          -1.17804e-22           6.72477e-18
        cbs           5.93502e-18          -2.90103e-15
        cdg          -4.14308e-22          -3.91752e-15
        cdd           4.70866e-22          -1.07253e-17
        cds           8.62772e-23           4.78917e-15
        csg          -4.22401e-22          -5.87404e-15
        csd           2.31375e-22          -1.68402e-17
        css           3.36671e-22           7.18179e-15
        cgb          -4.58417e-15          -1.61245e-15
        cdb          -1.42835e-22           -8.6093e-16
        csb          -1.45644e-22          -1.29091e-15
        cbb           4.58418e-15           3.76429e-15
      capbd           1.18202e-14             4.468e-15
      capbs           2.27718e-15           1.12957e-14
         qg           4.10352e-15           1.03007e-14
         qb          -4.10352e-15          -6.83888e-15
         qd          -1.55432e-23          -1.38495e-15
         qs          -1.58468e-23          -2.07684e-15
       qinv                     0                     0
       qdef                     0                     0
       gcrg            0.00647041             0.0359579
       gtau                     0                     0
    vgsteff           6.52258e-09              0.305961
     vdseff           0.000671849               0.19962
       cgso           3.19264e-15           3.21708e-15
       cgdo           4.26506e-15           3.86493e-15
       cgbo                     0                     0
       weff           5.03164e-06           5.03164e-06
       leff            3.0878e-07            3.0878e-07

 Capacitor: Fixed capacitor
     device          c.xoutcap.c1         c.xlload_c.c1         c.xlload_l.c0
      model                     C                     C                     C
capacitance           2.06582e-13           2.06582e-13              5.38e-14
      dtemp                     0                     0                     0
     bv_max                 1e+99                 1e+99                 1e+99
          i                     0                     0                     0
          p                     0                     0                     0

 Capacitor: Fixed capacitor
     device        c.xlload_l.c25        c.xlload_l.c24 c.xlload_r.xsky130_fd
      model                     C                     C                     C
capacitance              5.38e-14             8.337e-15           8.31421e-16
      dtemp                     0                     0                     0
     bv_max                 1e+99                 1e+99                 1e+99
          i                     0                     0                     0
          p                     0                     0                     0

 Capacitor: Fixed capacitor
     device c.xlload_r.xsky130_fd          c.xlsrc_c.c1          c.xlsrc_l.c0
      model                     C                     C                     C
capacitance           8.31421e-16           7.59422e-14              5.38e-14
      dtemp                     0                     0                     0
     bv_max                 1e+99                 1e+99                 1e+99
          i                     0                     0                     0
          p                     0                     0                     0

 Capacitor: Fixed capacitor
     device         c.xlsrc_l.c25         c.xlsrc_l.c24          c.xlsrc_r.c2
      model                     C                     C                     C
capacitance              5.38e-14             8.337e-15           1.30076e-15
      dtemp                     0                     0                     0
     bv_max                 1e+99                 1e+99                 1e+99
          i                     0                     0                     0
          p                     0                     0                     0

 Capacitor: Fixed capacitor
     device          c.xlsrc_r.c1        c.xlgate_l.c25        c.xlgate_l.c24
      model                     C                     C                     C
capacitance           1.30076e-15             2.237e-13              2.05e-13
      dtemp                     0                     0                     0
     bv_max                 1e+99                 1e+99                 1e+99
          i                     0                     0                     0
          p                     0                     0                    -0

 Capacitor: Fixed capacitor
     device         c.xlgate_l.c2           c.xincap.c1
      model                     C                     C
capacitance             2.237e-13           2.06582e-13
      dtemp                     0                     0
     bv_max                 1e+99                 1e+99
          i                     0                     0
          p                     0                    -0

 Inductor: Fixed inductor
     device         l.xlload_l.l1         l.xlload_l.l0          l.xlsrc_l.l1
      model                     L                     L                     L
 inductance             7.605e-10             7.605e-10             7.605e-10
      dtemp                     0                     0                     0
         nt                     0                     0                     0
       flux                     0                     0                     0
          v                     0                     0                     0
          i            0.00058197            0.00058197           0.000581117
          p                     0                     0                     0

 Inductor: Fixed inductor
     device          l.xlsrc_l.l0         l.xlgate_l.l3         l.xlgate_l.l1
      model                     L                     L                     L
 inductance             7.605e-10              4.96e-09              4.96e-09
      dtemp                     0                     0                     0
         nt                     0                     0                     0
       flux                     0                     0                     0
          v                     0                     0                     0
          i           0.000581117          -4.00132e-14          -4.00132e-14
          p                     0                    -0                    -0

 Resistor: Simple linear resistor
     device                 rload         r.xoutcap.rs2         r.xoutcap.rs1
      model                     R                     R                     R
 resistance                    50            0.00203518                 0.047
         ac                    50            0.00203518                 0.047
      dtemp                     0                     0                     0
     bv_max                 1e+99                 1e+99                 1e+99
      noisy                     1                     1                     1
          i                     0                     0                     0
          p                     0                     0                     0

 Resistor: Simple linear resistor
     device        r.xlload_c.rs2        r.xlload_c.rs1         r.xlload_l.r9
      model                     R                     R                     R
 resistance            0.00203518                 0.047                 1.019
         ac            0.00203518                 0.047                 1.019
      dtemp                     0                     0                     0
     bv_max                 1e+99                 1e+99                 1e+99
      noisy                     1                     1                     1
          i                     0                     0            0.00058197
          p                     0                     0           3.45125e-07

 Resistor: Simple linear resistor
     device         r.xlload_l.r0        r.xlload_l.r10        r.xlload_l.r13
      model                     R                     R                     R
 resistance                 1.019                 21.56                 50.11
         ac                 1.019                 21.56                 50.11
      dtemp                     0                     0                     0
     bv_max                 1e+99                 1e+99                 1e+99
      noisy                     1                     1                     1
          i            0.00058197                     0          -4.43114e-18
          p           3.45125e-07                     0           9.83912e-34

 Resistor: Simple linear resistor
     device         r.xlload_l.r1        r.xlload_l.r26        r.xlload_l.r31
      model                     R                     R                     R
 resistance                 21.56                  0.01                  0.01
         ac                 21.56                  0.01                  0.01
      dtemp                     0                     0                     0
     bv_max                 1e+99                 1e+99                 1e+99
      noisy                     1                     1                     1
          i                     0            0.00058197            0.00058197
          p                     0            3.3869e-09            3.3869e-09

 Resistor: Simple linear resistor
     device         r.xlsrc_c.rs2         r.xlsrc_c.rs1          r.xlsrc_l.r9
      model                     R                     R                     R
 resistance            0.00567223                 0.047                 1.019
         ac            0.00567223                 0.047                 1.019
      dtemp                     0                     0                     0
     bv_max                 1e+99                 1e+99                 1e+99
      noisy                     1                     1                     1
          i                     0                     0           0.000581117
          p                     0                     0           3.44113e-07

 Resistor: Simple linear resistor
     device          r.xlsrc_l.r0         r.xlsrc_l.r10         r.xlsrc_l.r13
      model                     R                     R                     R
 resistance                 1.019                 21.56                 50.11
         ac                 1.019                 21.56                 50.11
      dtemp                     0                     0                     0
     bv_max                 1e+99                 1e+99                 1e+99
      noisy                     1                     1                     1
          i           0.000581117                     0                     0
          p           3.44113e-07                     0                     0

 Resistor: Simple linear resistor
     device          r.xlsrc_l.r1         r.xlsrc_l.r26         r.xlsrc_l.r31
      model                     R                     R                     R
 resistance                 21.56                  0.01                  0.01
         ac                 21.56                  0.01                  0.01
      dtemp                     0                     0                     0
     bv_max                 1e+99                 1e+99                 1e+99
      noisy                     1                     1                     1
          i                     0           0.000581117           0.000581117
          p                     0           3.37697e-09           3.37697e-09

 Resistor: Simple linear resistor
     device                 rbias         r.xlgate_l.r9        r.xlgate_l.r10
      model                     R                     R                     R
 resistance                 1e+06                 2.059                  5358
         ac                 1e+06                 2.059                  5358
      dtemp                     0                     0                     0
     bv_max                 1e+99                 1e+99                 1e+99
      noisy                     1                     1                     1
          i          -3.73432e-14           -4.0009e-14                     0
          p           1.39452e-21           3.29588e-27                     0

 Resistor: Simple linear resistor
     device        r.xlgate_l.r13         r.xlgate_l.r4         r.xlgate_l.r5
      model                     R                     R                     R
 resistance                 9.064                 2.059                  5358
         ac                 9.064                 2.059                  5358
      dtemp                     0                     0                     0
     bv_max                 1e+99                 1e+99                 1e+99
      noisy                     1                     1                     1
          i                     0          -3.99012e-14                     0
          p                     0           3.27814e-27                     0

 Resistor: Simple linear resistor
     device        r.xlgate_l.r26        r.xlgate_l.r31          r.xincap.rs2
      model                     R                     R                     R
 resistance                  0.01                  0.01            0.00203518
         ac                  0.01                  0.01            0.00203518
      dtemp                     0                     0                     0
     bv_max                 1e+99                 1e+99                 1e+99
      noisy                     1                     1                     1
          i          -4.44089e-14          -4.44089e-14                     0
          p           1.97215e-29           1.97215e-29                     0

 Resistor: Simple linear resistor
     device          r.xincap.rs1               rsource
      model                     R                     R
 resistance                 0.047                    50
         ac                 0.047                    50
      dtemp                     0                     0
     bv_max                 1e+99                 1e+99
      noisy                     1                     1
          i                     0                     0
          p                     0                     0

 Vsource: Independent voltage source
     device                   vin                 vbias                   vdd
         dc                     0                     1                   1.8
      acmag                     1                     0                     0
      pulse         -         -         -
        sin         -         -         -
        exp         -         -         -
        pwl         -         -         -
       sffm         -         -         -
         am         -         -         -
    trnoise         -         -         -
   trrandom         -         -         -
    portnum                     0                     0                     0
         z0                     0                     0                     0
        pwr                     0                     0                     0
       freq                     0                     0                     0
      phase                     0                     0                     0
          i                     0          -3.73432e-14          -0.000582051
          p                     0          -3.73432e-14           -0.00104769

Doing analysis at TEMP = 27.000000 and TNOM = 27.000000

Using SPARSE 1.3 as Direct Linear Solver
Warning: Source conductance reset to 1.0e3 mho.

No. of Data Rows : 401
gain_db             =  -2.03781e+01
f_3db_low           =  4.67585e+09
f_3db_high          =  8.64045e+09
Doing analysis at TEMP = 27.000000 and TNOM = 27.000000

Using SPARSE 1.3 as Direct Linear Solver
Warning: Source conductance reset to 1.0e3 mho.

No. of Data Rows : 54

No. of Data Rows : 1
vin_re              =  9.83465e-01
vin_im              =  -2.29181e-02
iin_re              =  -3.30693e-04
iin_im              =  -4.58363e-04
vout_re             =  4.68811e-02
vout_im             =  -8.17074e-02
vin_mag             =  9.83732e-01
iin_mag             =  5.65204e-04
vout_mag            =  9.42118e-02
zin_re              =  9.85231e+02
zin_im              =  -1.43484e+03
inoise_total = 2.881708e-07
onoise_total = 3.569434e-09
Note: Simulation executed from .control section 
[simulate_circuits] could not set process priority to high (nice -10): [Errno 13] Permission denied
